
---------- Begin Simulation Statistics ----------
sim_seconds                                  0.015789                       # Number of seconds simulated
sim_ticks                                 15788765500                       # Number of ticks simulated
final_tick                                15788765500                       # Number of ticks from beginning of simulation (restored from checkpoints and never reset)
sim_freq                                 1000000000000                       # Frequency of simulated ticks
host_inst_rate                                 113194                       # Simulator instruction rate (inst/s)
host_op_rate                                   255012                       # Simulator op (including micro ops) rate (op/s)
host_tick_rate                               77652016                       # Simulator tick rate (ticks/s)
host_mem_usage                                 677292                       # Number of bytes of host memory used
host_seconds                                   203.33                       # Real time elapsed on the host
sim_insts                                    23015444                       # Number of instructions simulated
sim_ops                                      51850819                       # Number of ops (including micro ops) simulated
system.voltage_domain.voltage                       1                       # Voltage in Volts
system.clk_domain.clock                          1000                       # Clock period in ticks
system.mem_ctrls.pwrStateResidencyTicks::UNDEFINED  15788765500                       # Cumulative time (in ticks) in various power states
system.mem_ctrls.bytes_read::.cpu.inst          46080                       # Number of bytes read from this memory
system.mem_ctrls.bytes_read::.cpu.data          17600                       # Number of bytes read from this memory
system.mem_ctrls.bytes_read::total              63680                       # Number of bytes read from this memory
system.mem_ctrls.bytes_inst_read::.cpu.inst        46080                       # Number of instructions bytes read from this memory
system.mem_ctrls.bytes_inst_read::total         46080                       # Number of instructions bytes read from this memory
system.mem_ctrls.num_reads::.cpu.inst             720                       # Number of read requests responded to by this memory
system.mem_ctrls.num_reads::.cpu.data             275                       # Number of read requests responded to by this memory
system.mem_ctrls.num_reads::total                 995                       # Number of read requests responded to by this memory
system.mem_ctrls.bw_read::.cpu.inst           2918531                       # Total read bandwidth from this memory (bytes/s)
system.mem_ctrls.bw_read::.cpu.data           1114717                       # Total read bandwidth from this memory (bytes/s)
system.mem_ctrls.bw_read::total               4033248                       # Total read bandwidth from this memory (bytes/s)
system.mem_ctrls.bw_inst_read::.cpu.inst      2918531                       # Instruction read bandwidth from this memory (bytes/s)
system.mem_ctrls.bw_inst_read::total          2918531                       # Instruction read bandwidth from this memory (bytes/s)
system.mem_ctrls.bw_total::.cpu.inst          2918531                       # Total bandwidth to/from this memory (bytes/s)
system.mem_ctrls.bw_total::.cpu.data          1114717                       # Total bandwidth to/from this memory (bytes/s)
system.mem_ctrls.bw_total::total              4033248                       # Total bandwidth to/from this memory (bytes/s)
system.mem_ctrls.avgPriority_.cpu.inst::samples       720.00                       # Average QoS priority value for accepted requests
system.mem_ctrls.avgPriority_.cpu.data::samples       275.00                       # Average QoS priority value for accepted requests
system.mem_ctrls.priorityMinLatency      0.000000018750                       # per QoS priority minimum request to response latency (s)
system.mem_ctrls.priorityMaxLatency      0.000001099750                       # per QoS priority maximum request to response latency (s)
system.mem_ctrls.numReadWriteTurnArounds            0                       # Number of turnarounds from READ to WRITE
system.mem_ctrls.numWriteReadTurnArounds            0                       # Number of turnarounds from WRITE to READ
system.mem_ctrls.numStayReadState                1980                       # Number of times bus staying in READ state
system.mem_ctrls.numStayWriteState                  0                       # Number of times bus staying in WRITE state
system.mem_ctrls.readReqs                         995                       # Number of read requests accepted
system.mem_ctrls.writeReqs                          0                       # Number of write requests accepted
system.mem_ctrls.readBursts                       995                       # Number of DRAM read bursts, including those serviced by the write queue
system.mem_ctrls.writeBursts                        0                       # Number of DRAM write bursts, including those merged in the write queue
system.mem_ctrls.bytesReadDRAM                  63680                       # Total number of bytes read from DRAM
system.mem_ctrls.bytesReadWrQ                       0                       # Total number of bytes read from write queue
system.mem_ctrls.bytesWritten                       0                       # Total number of bytes written to DRAM
system.mem_ctrls.bytesReadSys                   63680                       # Total read bytes from the system interface side
system.mem_ctrls.bytesWrittenSys                    0                       # Total written bytes from the system interface side
system.mem_ctrls.servicedByWrQ                      0                       # Number of DRAM read bursts serviced by the write queue
system.mem_ctrls.mergedWrBursts                     0                       # Number of DRAM write bursts merged with an existing one
system.mem_ctrls.neitherReadNorWriteReqs            0                       # Number of requests that are neither read nor write
system.mem_ctrls.perBankRdBursts::0                92                       # Per bank write bursts
system.mem_ctrls.perBankRdBursts::1               120                       # Per bank write bursts
system.mem_ctrls.perBankRdBursts::2                49                       # Per bank write bursts
system.mem_ctrls.perBankRdBursts::3                28                       # Per bank write bursts
system.mem_ctrls.perBankRdBursts::4                 1                       # Per bank write bursts
system.mem_ctrls.perBankRdBursts::5                67                       # Per bank write bursts
system.mem_ctrls.perBankRdBursts::6                66                       # Per bank write bursts
system.mem_ctrls.perBankRdBursts::7               125                       # Per bank write bursts
system.mem_ctrls.perBankRdBursts::8                10                       # Per bank write bursts
system.mem_ctrls.perBankRdBursts::9               109                       # Per bank write bursts
system.mem_ctrls.perBankRdBursts::10              101                       # Per bank write bursts
system.mem_ctrls.perBankRdBursts::11               65                       # Per bank write bursts
system.mem_ctrls.perBankRdBursts::12               27                       # Per bank write bursts
system.mem_ctrls.perBankRdBursts::13               48                       # Per bank write bursts
system.mem_ctrls.perBankRdBursts::14               28                       # Per bank write bursts
system.mem_ctrls.perBankRdBursts::15               59                       # Per bank write bursts
system.mem_ctrls.perBankWrBursts::0                 0                       # Per bank write bursts
system.mem_ctrls.perBankWrBursts::1                 0                       # Per bank write bursts
system.mem_ctrls.perBankWrBursts::2                 0                       # Per bank write bursts
system.mem_ctrls.perBankWrBursts::3                 0                       # Per bank write bursts
system.mem_ctrls.perBankWrBursts::4                 0                       # Per bank write bursts
system.mem_ctrls.perBankWrBursts::5                 0                       # Per bank write bursts
system.mem_ctrls.perBankWrBursts::6                 0                       # Per bank write bursts
system.mem_ctrls.perBankWrBursts::7                 0                       # Per bank write bursts
system.mem_ctrls.perBankWrBursts::8                 0                       # Per bank write bursts
system.mem_ctrls.perBankWrBursts::9                 0                       # Per bank write bursts
system.mem_ctrls.perBankWrBursts::10                0                       # Per bank write bursts
system.mem_ctrls.perBankWrBursts::11                0                       # Per bank write bursts
system.mem_ctrls.perBankWrBursts::12                0                       # Per bank write bursts
system.mem_ctrls.perBankWrBursts::13                0                       # Per bank write bursts
system.mem_ctrls.perBankWrBursts::14                0                       # Per bank write bursts
system.mem_ctrls.perBankWrBursts::15                0                       # Per bank write bursts
system.mem_ctrls.numRdRetry                         0                       # Number of times read queue was full causing retry
system.mem_ctrls.numWrRetry                         0                       # Number of times write queue was full causing retry
system.mem_ctrls.totGap                   15788683000                       # Total gap between requests
system.mem_ctrls.readPktSize::0                     0                       # Read request sizes (log2)
system.mem_ctrls.readPktSize::1                     0                       # Read request sizes (log2)
system.mem_ctrls.readPktSize::2                     0                       # Read request sizes (log2)
system.mem_ctrls.readPktSize::3                     0                       # Read request sizes (log2)
system.mem_ctrls.readPktSize::4                     0                       # Read request sizes (log2)
system.mem_ctrls.readPktSize::5                     0                       # Read request sizes (log2)
system.mem_ctrls.readPktSize::6                   995                       # Read request sizes (log2)
system.mem_ctrls.writePktSize::0                    0                       # Write request sizes (log2)
system.mem_ctrls.writePktSize::1                    0                       # Write request sizes (log2)
system.mem_ctrls.writePktSize::2                    0                       # Write request sizes (log2)
system.mem_ctrls.writePktSize::3                    0                       # Write request sizes (log2)
system.mem_ctrls.writePktSize::4                    0                       # Write request sizes (log2)
system.mem_ctrls.writePktSize::5                    0                       # Write request sizes (log2)
system.mem_ctrls.writePktSize::6                    0                       # Write request sizes (log2)
system.mem_ctrls.rdQLenPdf::0                     542                       # What read queue length does an incoming req see
system.mem_ctrls.rdQLenPdf::1                     313                       # What read queue length does an incoming req see
system.mem_ctrls.rdQLenPdf::2                     109                       # What read queue length does an incoming req see
system.mem_ctrls.rdQLenPdf::3                      26                       # What read queue length does an incoming req see
system.mem_ctrls.rdQLenPdf::4                       4                       # What read queue length does an incoming req see
system.mem_ctrls.rdQLenPdf::5                       1                       # What read queue length does an incoming req see
system.mem_ctrls.rdQLenPdf::6                       0                       # What read queue length does an incoming req see
system.mem_ctrls.rdQLenPdf::7                       0                       # What read queue length does an incoming req see
system.mem_ctrls.rdQLenPdf::8                       0                       # What read queue length does an incoming req see
system.mem_ctrls.rdQLenPdf::9                       0                       # What read queue length does an incoming req see
system.mem_ctrls.rdQLenPdf::10                      0                       # What read queue length does an incoming req see
system.mem_ctrls.rdQLenPdf::11                      0                       # What read queue length does an incoming req see
system.mem_ctrls.rdQLenPdf::12                      0                       # What read queue length does an incoming req see
system.mem_ctrls.rdQLenPdf::13                      0                       # What read queue length does an incoming req see
system.mem_ctrls.rdQLenPdf::14                      0                       # What read queue length does an incoming req see
system.mem_ctrls.rdQLenPdf::15                      0                       # What read queue length does an incoming req see
system.mem_ctrls.rdQLenPdf::16                      0                       # What read queue length does an incoming req see
system.mem_ctrls.rdQLenPdf::17                      0                       # What read queue length does an incoming req see
system.mem_ctrls.rdQLenPdf::18                      0                       # What read queue length does an incoming req see
system.mem_ctrls.rdQLenPdf::19                      0                       # What read queue length does an incoming req see
system.mem_ctrls.rdQLenPdf::20                      0                       # What read queue length does an incoming req see
system.mem_ctrls.rdQLenPdf::21                      0                       # What read queue length does an incoming req see
system.mem_ctrls.rdQLenPdf::22                      0                       # What read queue length does an incoming req see
system.mem_ctrls.rdQLenPdf::23                      0                       # What read queue length does an incoming req see
system.mem_ctrls.rdQLenPdf::24                      0                       # What read queue length does an incoming req see
system.mem_ctrls.rdQLenPdf::25                      0                       # What read queue length does an incoming req see
system.mem_ctrls.rdQLenPdf::26                      0                       # What read queue length does an incoming req see
system.mem_ctrls.rdQLenPdf::27                      0                       # What read queue length does an incoming req see
system.mem_ctrls.rdQLenPdf::28                      0                       # What read queue length does an incoming req see
system.mem_ctrls.rdQLenPdf::29                      0                       # What read queue length does an incoming req see
system.mem_ctrls.rdQLenPdf::30                      0                       # What read queue length does an incoming req see
system.mem_ctrls.rdQLenPdf::31                      0                       # What read queue length does an incoming req see
system.mem_ctrls.wrQLenPdf::0                       0                       # What write queue length does an incoming req see
system.mem_ctrls.wrQLenPdf::1                       0                       # What write queue length does an incoming req see
system.mem_ctrls.wrQLenPdf::2                       0                       # What write queue length does an incoming req see
system.mem_ctrls.wrQLenPdf::3                       0                       # What write queue length does an incoming req see
system.mem_ctrls.wrQLenPdf::4                       0                       # What write queue length does an incoming req see
system.mem_ctrls.wrQLenPdf::5                       0                       # What write queue length does an incoming req see
system.mem_ctrls.wrQLenPdf::6                       0                       # What write queue length does an incoming req see
system.mem_ctrls.wrQLenPdf::7                       0                       # What write queue length does an incoming req see
system.mem_ctrls.wrQLenPdf::8                       0                       # What write queue length does an incoming req see
system.mem_ctrls.wrQLenPdf::9                       0                       # What write queue length does an incoming req see
system.mem_ctrls.wrQLenPdf::10                      0                       # What write queue length does an incoming req see
system.mem_ctrls.wrQLenPdf::11                      0                       # What write queue length does an incoming req see
system.mem_ctrls.wrQLenPdf::12                      0                       # What write queue length does an incoming req see
system.mem_ctrls.wrQLenPdf::13                      0                       # What write queue length does an incoming req see
system.mem_ctrls.wrQLenPdf::14                      0                       # What write queue length does an incoming req see
system.mem_ctrls.wrQLenPdf::15                      0                       # What write queue length does an incoming req see
system.mem_ctrls.wrQLenPdf::16                      0                       # What write queue length does an incoming req see
system.mem_ctrls.wrQLenPdf::17                      0                       # What write queue length does an incoming req see
system.mem_ctrls.wrQLenPdf::18                      0                       # What write queue length does an incoming req see
system.mem_ctrls.wrQLenPdf::19                      0                       # What write queue length does an incoming req see
system.mem_ctrls.wrQLenPdf::20                      0                       # What write queue length does an incoming req see
system.mem_ctrls.wrQLenPdf::21                      0                       # What write queue length does an incoming req see
system.mem_ctrls.wrQLenPdf::22                      0                       # What write queue length does an incoming req see
system.mem_ctrls.wrQLenPdf::23                      0                       # What write queue length does an incoming req see
system.mem_ctrls.wrQLenPdf::24                      0                       # What write queue length does an incoming req see
system.mem_ctrls.wrQLenPdf::25                      0                       # What write queue length does an incoming req see
system.mem_ctrls.wrQLenPdf::26                      0                       # What write queue length does an incoming req see
system.mem_ctrls.wrQLenPdf::27                      0                       # What write queue length does an incoming req see
system.mem_ctrls.wrQLenPdf::28                      0                       # What write queue length does an incoming req see
system.mem_ctrls.wrQLenPdf::29                      0                       # What write queue length does an incoming req see
system.mem_ctrls.wrQLenPdf::30                      0                       # What write queue length does an incoming req see
system.mem_ctrls.wrQLenPdf::31                      0                       # What write queue length does an incoming req see
system.mem_ctrls.wrQLenPdf::32                      0                       # What write queue length does an incoming req see
system.mem_ctrls.wrQLenPdf::33                      0                       # What write queue length does an incoming req see
system.mem_ctrls.wrQLenPdf::34                      0                       # What write queue length does an incoming req see
system.mem_ctrls.wrQLenPdf::35                      0                       # What write queue length does an incoming req see
system.mem_ctrls.wrQLenPdf::36                      0                       # What write queue length does an incoming req see
system.mem_ctrls.wrQLenPdf::37                      0                       # What write queue length does an incoming req see
system.mem_ctrls.wrQLenPdf::38                      0                       # What write queue length does an incoming req see
system.mem_ctrls.wrQLenPdf::39                      0                       # What write queue length does an incoming req see
system.mem_ctrls.wrQLenPdf::40                      0                       # What write queue length does an incoming req see
system.mem_ctrls.wrQLenPdf::41                      0                       # What write queue length does an incoming req see
system.mem_ctrls.wrQLenPdf::42                      0                       # What write queue length does an incoming req see
system.mem_ctrls.wrQLenPdf::43                      0                       # What write queue length does an incoming req see
system.mem_ctrls.wrQLenPdf::44                      0                       # What write queue length does an incoming req see
system.mem_ctrls.wrQLenPdf::45                      0                       # What write queue length does an incoming req see
system.mem_ctrls.wrQLenPdf::46                      0                       # What write queue length does an incoming req see
system.mem_ctrls.wrQLenPdf::47                      0                       # What write queue length does an incoming req see
system.mem_ctrls.wrQLenPdf::48                      0                       # What write queue length does an incoming req see
system.mem_ctrls.wrQLenPdf::49                      0                       # What write queue length does an incoming req see
system.mem_ctrls.wrQLenPdf::50                      0                       # What write queue length does an incoming req see
system.mem_ctrls.wrQLenPdf::51                      0                       # What write queue length does an incoming req see
system.mem_ctrls.wrQLenPdf::52                      0                       # What write queue length does an incoming req see
system.mem_ctrls.wrQLenPdf::53                      0                       # What write queue length does an incoming req see
system.mem_ctrls.wrQLenPdf::54                      0                       # What write queue length does an incoming req see
system.mem_ctrls.wrQLenPdf::55                      0                       # What write queue length does an incoming req see
system.mem_ctrls.wrQLenPdf::56                      0                       # What write queue length does an incoming req see
system.mem_ctrls.wrQLenPdf::57                      0                       # What write queue length does an incoming req see
system.mem_ctrls.wrQLenPdf::58                      0                       # What write queue length does an incoming req see
system.mem_ctrls.wrQLenPdf::59                      0                       # What write queue length does an incoming req see
system.mem_ctrls.wrQLenPdf::60                      0                       # What write queue length does an incoming req see
system.mem_ctrls.wrQLenPdf::61                      0                       # What write queue length does an incoming req see
system.mem_ctrls.wrQLenPdf::62                      0                       # What write queue length does an incoming req see
system.mem_ctrls.wrQLenPdf::63                      0                       # What write queue length does an incoming req see
system.mem_ctrls.bytesPerActivate::samples          211                       # Bytes accessed per row activation
system.mem_ctrls.bytesPerActivate::mean    297.251185                       # Bytes accessed per row activation
system.mem_ctrls.bytesPerActivate::gmean   187.401172                       # Bytes accessed per row activation
system.mem_ctrls.bytesPerActivate::stdev   301.946871                       # Bytes accessed per row activation
system.mem_ctrls.bytesPerActivate::0-127           66     31.28%     31.28% # Bytes accessed per row activation
system.mem_ctrls.bytesPerActivate::128-255           63     29.86%     61.14% # Bytes accessed per row activation
system.mem_ctrls.bytesPerActivate::256-383           21      9.95%     71.09% # Bytes accessed per row activation
system.mem_ctrls.bytesPerActivate::384-511           21      9.95%     81.04% # Bytes accessed per row activation
system.mem_ctrls.bytesPerActivate::512-639            9      4.27%     85.31% # Bytes accessed per row activation
system.mem_ctrls.bytesPerActivate::640-767            4      1.90%     87.20% # Bytes accessed per row activation
system.mem_ctrls.bytesPerActivate::768-895            4      1.90%     89.10% # Bytes accessed per row activation
system.mem_ctrls.bytesPerActivate::896-1023            3      1.42%     90.52% # Bytes accessed per row activation
system.mem_ctrls.bytesPerActivate::1024-1151           20      9.48%    100.00% # Bytes accessed per row activation
system.mem_ctrls.bytesPerActivate::total          211                       # Bytes accessed per row activation
system.mem_ctrls.masterReadBytes::.cpu.inst        46080                       # Per-master bytes read from memory
system.mem_ctrls.masterReadBytes::.cpu.data        17600                       # Per-master bytes read from memory
system.mem_ctrls.masterReadRate::.cpu.inst 2918530.900975126773                       # Per-master bytes read from memory rate (Bytes/sec)
system.mem_ctrls.masterReadRate::.cpu.data 1114716.663566888776                       # Per-master bytes read from memory rate (Bytes/sec)
system.mem_ctrls.masterReadAccesses::.cpu.inst          720                       # Per-master read serviced memory accesses
system.mem_ctrls.masterReadAccesses::.cpu.data          275                       # Per-master read serviced memory accesses
system.mem_ctrls.masterReadTotalLat::.cpu.inst     25883250                       # Per-master read total memory access latency
system.mem_ctrls.masterReadTotalLat::.cpu.data      9894000                       # Per-master read total memory access latency
system.mem_ctrls.masterReadAvgLat::.cpu.inst     35948.96                       # Per-master read average memory access latency
system.mem_ctrls.masterReadAvgLat::.cpu.data     35978.18                       # Per-master read average memory access latency
system.mem_ctrls.totQLat                     17121000                       # Total ticks spent queuing
system.mem_ctrls.totMemAccLat                35777250                       # Total ticks spent from burst creation until serviced by the DRAM
system.mem_ctrls.totBusLat                    4975000                       # Total ticks spent in databus transfers
system.mem_ctrls.avgQLat                     17207.04                       # Average queueing delay per DRAM burst
system.mem_ctrls.avgBusLat                    5000.00                       # Average bus latency per DRAM burst
system.mem_ctrls.avgMemAccLat                35957.04                       # Average memory access latency per DRAM burst
system.mem_ctrls.avgRdBW                         4.03                       # Average DRAM read bandwidth in MiByte/s
system.mem_ctrls.avgWrBW                         0.00                       # Average achieved write bandwidth in MiByte/s
system.mem_ctrls.avgRdBWSys                      4.03                       # Average system read bandwidth in MiByte/s
system.mem_ctrls.avgWrBWSys                      0.00                       # Average system write bandwidth in MiByte/s
system.mem_ctrls.peakBW                      12800.00                       # Theoretical peak bandwidth in MiByte/s
system.mem_ctrls.busUtil                         0.03                       # Data bus utilization in percentage
system.mem_ctrls.busUtilRead                     0.03                       # Data bus utilization in percentage for reads
system.mem_ctrls.busUtilWrite                    0.00                       # Data bus utilization in percentage for writes
system.mem_ctrls.avgRdQLen                       1.01                       # Average read queue length when enqueuing
system.mem_ctrls.avgWrQLen                       0.00                       # Average write queue length when enqueuing
system.mem_ctrls.readRowHits                      777                       # Number of row buffer hits during reads
system.mem_ctrls.writeRowHits                       0                       # Number of row buffer hits during writes
system.mem_ctrls.readRowHitRate                 78.09                       # Row buffer hit rate for reads
system.mem_ctrls.writeRowHitRate                  nan                       # Row buffer hit rate for writes
system.mem_ctrls.avgGap                   15868023.12                       # Average gap between requests
system.mem_ctrls.pageHitRate                    78.09                       # Row buffer hit rate, read and write combined
system.mem_ctrls_0.actEnergy                   913920                       # Energy for activate commands per rank (pJ)
system.mem_ctrls_0.preEnergy                   466785                       # Energy for precharge commands per rank (pJ)
system.mem_ctrls_0.readEnergy                 3912720                       # Energy for read commands per rank (pJ)
system.mem_ctrls_0.writeEnergy                      0                       # Energy for write commands per rank (pJ)
system.mem_ctrls_0.refreshEnergy         9219600.000000                       # Energy for refresh commands per rank (pJ)
system.mem_ctrls_0.actBackEnergy              7608930                       # Energy for active background per rank (pJ)
system.mem_ctrls_0.preBackEnergy               596640                       # Energy for precharge background per rank (pJ)
system.mem_ctrls_0.actPowerDownEnergy        32706600                       # Energy for active power-down per rank (pJ)
system.mem_ctrls_0.prePowerDownEnergy        12441120                       # Energy for precharge power-down per rank (pJ)
system.mem_ctrls_0.selfRefreshEnergy       3762145560                       # Energy for self refresh per rank (pJ)
system.mem_ctrls_0.totalEnergy             3830011875                       # Total energy per rank (pJ)
system.mem_ctrls_0.averagePower            242.578299                       # Core power per rank (mW)
system.mem_ctrls_0.totalIdleTime          15770351750                       # Total Idle time Per DRAM Rank
system.mem_ctrls_0.memoryStateTime::IDLE      1181500                       # Time in different power states
system.mem_ctrls_0.memoryStateTime::REF       3900000                       # Time in different power states
system.mem_ctrls_0.memoryStateTime::SREF  15666401250                       # Time in different power states
system.mem_ctrls_0.memoryStateTime::PRE_PDN     32398500                       # Time in different power states
system.mem_ctrls_0.memoryStateTime::ACT      13161250                       # Time in different power states
system.mem_ctrls_0.memoryStateTime::ACT_PDN     71723000                       # Time in different power states
system.mem_ctrls_1.actEnergy                   642600                       # Energy for activate commands per rank (pJ)
system.mem_ctrls_1.preEnergy                   333960                       # Energy for precharge commands per rank (pJ)
system.mem_ctrls_1.readEnergy                 3191580                       # Energy for read commands per rank (pJ)
system.mem_ctrls_1.writeEnergy                      0                       # Energy for write commands per rank (pJ)
system.mem_ctrls_1.refreshEnergy         6761040.000000                       # Energy for refresh commands per rank (pJ)
system.mem_ctrls_1.actBackEnergy              5966190                       # Energy for active background per rank (pJ)
system.mem_ctrls_1.preBackEnergy              1419840                       # Energy for precharge background per rank (pJ)
system.mem_ctrls_1.actPowerDownEnergy        22932810                       # Energy for active power-down per rank (pJ)
system.mem_ctrls_1.prePowerDownEnergy         8749920                       # Energy for precharge power-down per rank (pJ)
system.mem_ctrls_1.selfRefreshEnergy       3769394520                       # Energy for self refresh per rank (pJ)
system.mem_ctrls_1.totalEnergy             3819392460                       # Total energy per rank (pJ)
system.mem_ctrls_1.averagePower            241.905706                       # Core power per rank (mW)
system.mem_ctrls_1.totalIdleTime          15771952500                       # Total Idle time Per DRAM Rank
system.mem_ctrls_1.memoryStateTime::IDLE      3337000                       # Time in different power states
system.mem_ctrls_1.memoryStateTime::REF       2860000                       # Time in different power states
system.mem_ctrls_1.memoryStateTime::SREF  15698908250                       # Time in different power states
system.mem_ctrls_1.memoryStateTime::PRE_PDN     22787000                       # Time in different power states
system.mem_ctrls_1.memoryStateTime::ACT      10563750                       # Time in different power states
system.mem_ctrls_1.memoryStateTime::ACT_PDN     50309500                       # Time in different power states
system.pwrStateResidencyTicks::UNDEFINED  15788765500                       # Cumulative time (in ticks) in various power states
system.cpu.branchPred.lookups                15680503                       # Number of BP lookups
system.cpu.branchPred.condPredicted          15680503                       # Number of conditional branches predicted
system.cpu.branchPred.condIncorrect           1490947                       # Number of conditional branches incorrect
system.cpu.branchPred.BTBLookups             14813929                       # Number of BTB lookups
system.cpu.branchPred.BTBHits                       0                       # Number of BTB hits
system.cpu.branchPred.BTBCorrect                    0                       # Number of correct BTB predictions (this stat may not work properly.
system.cpu.branchPred.BTBHitPct              0.000000                       # BTB Hit Percentage
system.cpu.branchPred.usedRAS                  443326                       # Number of times the RAS was used to get a target.
system.cpu.branchPred.RASInCorrect               4226                       # Number of incorrect RAS predictions.
system.cpu.branchPred.indirectLookups        14813929                       # Number of indirect predictor lookups.
system.cpu.branchPred.indirectHits           12870742                       # Number of indirect target hits.
system.cpu.branchPred.indirectMisses          1943187                       # Number of indirect misses.
system.cpu.branchPredindirectMispredicted       264626                       # Number of mispredicted indirect branches.
system.cpu_voltage_domain.voltage                   1                       # Voltage in Volts
system.cpu_clk_domain.clock                       500                       # Clock period in ticks
system.cpu.dtb.walker.pwrStateResidencyTicks::UNDEFINED  15788765500                       # Cumulative time (in ticks) in various power states
system.cpu.dtb.rdAccesses                    10210715                       # TLB accesses on read requests
system.cpu.dtb.wrAccesses                     3470684                       # TLB accesses on write requests
system.cpu.dtb.rdMisses                           569                       # TLB misses on read requests
system.cpu.dtb.wrMisses                            53                       # TLB misses on write requests
system.cpu.apic_clk_domain.clock                 8000                       # Clock period in ticks
system.cpu.interrupts.pwrStateResidencyTicks::UNDEFINED  15788765500                       # Cumulative time (in ticks) in various power states
system.cpu.itb.walker.pwrStateResidencyTicks::UNDEFINED  15788765500                       # Cumulative time (in ticks) in various power states
system.cpu.itb.rdAccesses                           0                       # TLB accesses on read requests
system.cpu.itb.wrAccesses                     2712390                       # TLB accesses on write requests
system.cpu.itb.rdMisses                             0                       # TLB misses on read requests
system.cpu.itb.wrMisses                           127                       # TLB misses on write requests
system.cpu.workload.numSyscalls                    12                       # Number of system calls
system.cpu.pwrStateResidencyTicks::ON     15788765500                       # Cumulative time (in ticks) in various power states
system.cpu.numCycles                         31577532                       # number of cpu cycles simulated
system.cpu.numWorkItemsStarted                      0                       # number of work items this cpu started
system.cpu.numWorkItemsCompleted                    0                       # number of work items this cpu completed
system.cpu.fetch.icacheStallCycles            2989022                       # Number of cycles fetch is stalled on an Icache miss
system.cpu.fetch.Insts                       69396491                       # Number of instructions fetch has processed
system.cpu.fetch.Branches                    15680503                       # Number of branches that fetch encountered
system.cpu.fetch.predictedBranches           13314068                       # Number of branches that fetch has predicted taken
system.cpu.fetch.Cycles                      27045288                       # Number of cycles fetch has run and was not squashing or blocked
system.cpu.fetch.SquashCycles                 2982048                       # Number of cycles fetch has spent squashing
system.cpu.fetch.MiscStallCycles                  114                       # Number of cycles fetch has spent waiting on interrupts, or bad addresses, or out of MSHRs
system.cpu.fetch.PendingTrapStallCycles           446                       # Number of stall cycles due to pending traps
system.cpu.fetch.PendingQuiesceStallCycles           11                       # Number of stall cycles due to pending quiesce instructions
system.cpu.fetch.IcacheWaitRetryStallCycles          196                       # Number of stall cycles due to full MSHR
system.cpu.fetch.CacheLines                   2712314                       # Number of cache lines fetched
system.cpu.fetch.IcacheSquashes                108642                       # Number of outstanding Icache misses that were squashed
system.cpu.fetch.rateDist::samples           31526101                       # Number of instructions fetched each cycle (Total)
system.cpu.fetch.rateDist::mean              5.044579                       # Number of instructions fetched each cycle (Total)
system.cpu.fetch.rateDist::stdev             2.962973                       # Number of instructions fetched each cycle (Total)
system.cpu.fetch.rateDist::underflows               0      0.00%      0.00% # Number of instructions fetched each cycle (Total)
system.cpu.fetch.rateDist::0                  6236489     19.78%     19.78% # Number of instructions fetched each cycle (Total)
system.cpu.fetch.rateDist::1                   540043      1.71%     21.49% # Number of instructions fetched each cycle (Total)
system.cpu.fetch.rateDist::2                   830180      2.63%     24.13% # Number of instructions fetched each cycle (Total)
system.cpu.fetch.rateDist::3                   465763      1.48%     25.61% # Number of instructions fetched each cycle (Total)
system.cpu.fetch.rateDist::4                   234897      0.75%     26.35% # Number of instructions fetched each cycle (Total)
system.cpu.fetch.rateDist::5                  6443737     20.44%     46.79% # Number of instructions fetched each cycle (Total)
system.cpu.fetch.rateDist::6                  5669760     17.98%     64.77% # Number of instructions fetched each cycle (Total)
system.cpu.fetch.rateDist::7                   580483      1.84%     66.62% # Number of instructions fetched each cycle (Total)
system.cpu.fetch.rateDist::8                 10524749     33.38%    100.00% # Number of instructions fetched each cycle (Total)
system.cpu.fetch.rateDist::overflows                0      0.00%    100.00% # Number of instructions fetched each cycle (Total)
system.cpu.fetch.rateDist::min_value                0                       # Number of instructions fetched each cycle (Total)
system.cpu.fetch.rateDist::max_value                8                       # Number of instructions fetched each cycle (Total)
system.cpu.fetch.rateDist::total             31526101                       # Number of instructions fetched each cycle (Total)
system.cpu.fetch.branchRate                  0.496572                       # Number of branch fetches per cycle
system.cpu.fetch.rate                        2.197654                       # Number of inst fetches per cycle
system.cpu.decode.IdleCycles                  3683364                       # Number of cycles decode is idle
system.cpu.decode.BlockedCycles               6864858                       # Number of cycles decode is blocked
system.cpu.decode.RunCycles                  17173010                       # Number of cycles decode is running
system.cpu.decode.UnblockCycles               2313845                       # Number of cycles decode is unblocking
system.cpu.decode.SquashCycles                1491024                       # Number of cycles decode is squashing
system.cpu.decode.DecodedInsts              143400433                       # Number of instructions handled by decode
system.cpu.rename.SquashCycles                1491024                       # Number of cycles rename is squashing
system.cpu.rename.IdleCycles                  4975318                       # Number of cycles rename is idle
system.cpu.rename.BlockCycles                 6863285                       # Number of cycles rename is blocking
system.cpu.rename.serializeStallCycles           2009                       # count of cycles rename stalled for serializing inst
system.cpu.rename.RunCycles                  17140193                       # Number of cycles rename is running
system.cpu.rename.UnblockCycles               1054272                       # Number of cycles rename is unblocking
system.cpu.rename.RenamedInsts              134009717                       # Number of instructions processed by rename
system.cpu.rename.ROBFullEvents                    55                       # Number of times rename has blocked due to ROB full
system.cpu.rename.IQFullEvents                     91                       # Number of times rename has blocked due to IQ full
system.cpu.rename.SQFullEvents                   1384                       # Number of times rename has blocked due to SQ full
system.cpu.rename.RenamedOperands           184350729                       # Number of destination operands rename has renamed
system.cpu.rename.RenameLookups             270601385                       # Number of register rename lookups that rename has made
system.cpu.rename.int_rename_lookups        159166939                       # Number of integer rename lookups
system.cpu.rename.fp_rename_lookups              2043                       # Number of floating rename lookups
system.cpu.rename.CommittedMaps              68952348                       # Number of HB maps that are committed
system.cpu.rename.UndoneMaps                115398381                       # Number of HB maps that are undone due to squashing
system.cpu.rename.serializingInsts                167                       # count of serializing insts renamed
system.cpu.rename.tempSerializingInsts            162                       # count of temporary serializing insts renamed
system.cpu.rename.skidInsts                   6595875                       # count of insts added to the skid buffer
system.cpu.memDep0.insertedLoads             13289419                       # Number of loads inserted to the mem dependence unit.
system.cpu.memDep0.insertedStores             4699214                       # Number of stores inserted to the mem dependence unit.
system.cpu.memDep0.conflictingLoads              7715                       # Number of conflicting loads.
system.cpu.memDep0.conflictingStores             3851                       # Number of conflicting stores.
system.cpu.iq.iqInstsAdded                  113502044                       # Number of instructions added to the IQ (excludes non-spec)
system.cpu.iq.iqNonSpecInstsAdded                8447                       # Number of non-speculative instructions added to the IQ
system.cpu.iq.iqInstsIssued                  93221012                       # Number of instructions issued
system.cpu.iq.iqSquashedInstsIssued           3320225                       # Number of squashed instructions issued
system.cpu.iq.iqSquashedInstsExamined        61659671                       # Number of squashed instructions iterated over during squash; mainly for profiling
system.cpu.iq.iqSquashedOperandsExamined     74472739                       # Number of squashed operands that are examined and possibly removed from graph
system.cpu.iq.iqSquashedNonSpecRemoved           8435                       # Number of squashed non-spec instructions that were removed
system.cpu.iq.issued_per_cycle::samples      31526101                       # Number of insts issued each cycle
system.cpu.iq.issued_per_cycle::mean         2.956947                       # Number of insts issued each cycle
system.cpu.iq.issued_per_cycle::stdev        3.026585                       # Number of insts issued each cycle
system.cpu.iq.issued_per_cycle::underflows            0      0.00%      0.00% # Number of insts issued each cycle
system.cpu.iq.issued_per_cycle::0            14208738     45.07%     45.07% # Number of insts issued each cycle
system.cpu.iq.issued_per_cycle::1              643967      2.04%     47.11% # Number of insts issued each cycle
system.cpu.iq.issued_per_cycle::2             1004636      3.19%     50.30% # Number of insts issued each cycle
system.cpu.iq.issued_per_cycle::3             1648543      5.23%     55.53% # Number of insts issued each cycle
system.cpu.iq.issued_per_cycle::4             2160194      6.85%     62.38% # Number of insts issued each cycle
system.cpu.iq.issued_per_cycle::5             1665205      5.28%     67.66% # Number of insts issued each cycle
system.cpu.iq.issued_per_cycle::6             4911242     15.58%     83.24% # Number of insts issued each cycle
system.cpu.iq.issued_per_cycle::7             3080717      9.77%     93.01% # Number of insts issued each cycle
system.cpu.iq.issued_per_cycle::8             2202859      6.99%    100.00% # Number of insts issued each cycle
system.cpu.iq.issued_per_cycle::overflows            0      0.00%    100.00% # Number of insts issued each cycle
system.cpu.iq.issued_per_cycle::min_value            0                       # Number of insts issued each cycle
system.cpu.iq.issued_per_cycle::max_value            8                       # Number of insts issued each cycle
system.cpu.iq.issued_per_cycle::total        31526101                       # Number of insts issued each cycle
system.cpu.iq.fu_full::No_OpClass                   0      0.00%      0.00% # attempts to use FU when none available
system.cpu.iq.fu_full::IntAlu                 6208119     95.67%     95.67% # attempts to use FU when none available
system.cpu.iq.fu_full::IntMult                      0      0.00%     95.67% # attempts to use FU when none available
system.cpu.iq.fu_full::IntDiv                       0      0.00%     95.67% # attempts to use FU when none available
system.cpu.iq.fu_full::FloatAdd                     0      0.00%     95.67% # attempts to use FU when none available
system.cpu.iq.fu_full::FloatCmp                     0      0.00%     95.67% # attempts to use FU when none available
system.cpu.iq.fu_full::FloatCvt                     0      0.00%     95.67% # attempts to use FU when none available
system.cpu.iq.fu_full::FloatMult                    0      0.00%     95.67% # attempts to use FU when none available
system.cpu.iq.fu_full::FloatMultAcc                 0      0.00%     95.67% # attempts to use FU when none available
system.cpu.iq.fu_full::FloatDiv                     0      0.00%     95.67% # attempts to use FU when none available
system.cpu.iq.fu_full::FloatMisc                    0      0.00%     95.67% # attempts to use FU when none available
system.cpu.iq.fu_full::FloatSqrt                    0      0.00%     95.67% # attempts to use FU when none available
system.cpu.iq.fu_full::SimdAdd                      0      0.00%     95.67% # attempts to use FU when none available
system.cpu.iq.fu_full::SimdAddAcc                   0      0.00%     95.67% # attempts to use FU when none available
system.cpu.iq.fu_full::SimdAlu                      8      0.00%     95.67% # attempts to use FU when none available
system.cpu.iq.fu_full::SimdCmp                      0      0.00%     95.67% # attempts to use FU when none available
system.cpu.iq.fu_full::SimdCvt                      1      0.00%     95.67% # attempts to use FU when none available
system.cpu.iq.fu_full::SimdMisc                     1      0.00%     95.67% # attempts to use FU when none available
system.cpu.iq.fu_full::SimdMult                     0      0.00%     95.67% # attempts to use FU when none available
system.cpu.iq.fu_full::SimdMultAcc                  0      0.00%     95.67% # attempts to use FU when none available
system.cpu.iq.fu_full::SimdShift                    0      0.00%     95.67% # attempts to use FU when none available
system.cpu.iq.fu_full::SimdShiftAcc                 0      0.00%     95.67% # attempts to use FU when none available
system.cpu.iq.fu_full::SimdSqrt                     0      0.00%     95.67% # attempts to use FU when none available
system.cpu.iq.fu_full::SimdFloatAdd                 0      0.00%     95.67% # attempts to use FU when none available
system.cpu.iq.fu_full::SimdFloatAlu                 0      0.00%     95.67% # attempts to use FU when none available
system.cpu.iq.fu_full::SimdFloatCmp                 0      0.00%     95.67% # attempts to use FU when none available
system.cpu.iq.fu_full::SimdFloatCvt                 0      0.00%     95.67% # attempts to use FU when none available
system.cpu.iq.fu_full::SimdFloatDiv                 0      0.00%     95.67% # attempts to use FU when none available
system.cpu.iq.fu_full::SimdFloatMisc                0      0.00%     95.67% # attempts to use FU when none available
system.cpu.iq.fu_full::SimdFloatMult                0      0.00%     95.67% # attempts to use FU when none available
system.cpu.iq.fu_full::SimdFloatMultAcc             0      0.00%     95.67% # attempts to use FU when none available
system.cpu.iq.fu_full::SimdFloatSqrt                0      0.00%     95.67% # attempts to use FU when none available
system.cpu.iq.fu_full::SimdAes                      0      0.00%     95.67% # attempts to use FU when none available
system.cpu.iq.fu_full::SimdAesMix                   0      0.00%     95.67% # attempts to use FU when none available
system.cpu.iq.fu_full::SimdSha1Hash                 0      0.00%     95.67% # attempts to use FU when none available
system.cpu.iq.fu_full::SimdSha1Hash2                0      0.00%     95.67% # attempts to use FU when none available
system.cpu.iq.fu_full::SimdSha256Hash               0      0.00%     95.67% # attempts to use FU when none available
system.cpu.iq.fu_full::SimdSha256Hash2              0      0.00%     95.67% # attempts to use FU when none available
system.cpu.iq.fu_full::SimdShaSigma2                0      0.00%     95.67% # attempts to use FU when none available
system.cpu.iq.fu_full::SimdShaSigma3                0      0.00%     95.67% # attempts to use FU when none available
system.cpu.iq.fu_full::MemRead                   1678      0.03%     95.69% # attempts to use FU when none available
system.cpu.iq.fu_full::MemWrite                279431      4.31%    100.00% # attempts to use FU when none available
system.cpu.iq.fu_full::FloatMemRead                 0      0.00%    100.00% # attempts to use FU when none available
system.cpu.iq.fu_full::FloatMemWrite               29      0.00%    100.00% # attempts to use FU when none available
system.cpu.iq.fu_full::IprAccess                    0      0.00%    100.00% # attempts to use FU when none available
system.cpu.iq.fu_full::InstPrefetch                 0      0.00%    100.00% # attempts to use FU when none available
system.cpu.iq.FU_type_0::No_OpClass            141037      0.15%      0.15% # Type of FU issued
system.cpu.iq.FU_type_0::IntAlu              78197246     83.88%     84.04% # Type of FU issued
system.cpu.iq.FU_type_0::IntMult                   20      0.00%     84.04% # Type of FU issued
system.cpu.iq.FU_type_0::IntDiv                    47      0.00%     84.04% # Type of FU issued
system.cpu.iq.FU_type_0::FloatAdd                  20      0.00%     84.04% # Type of FU issued
system.cpu.iq.FU_type_0::FloatCmp                   0      0.00%     84.04% # Type of FU issued
system.cpu.iq.FU_type_0::FloatCvt                   0      0.00%     84.04% # Type of FU issued
system.cpu.iq.FU_type_0::FloatMult                  0      0.00%     84.04% # Type of FU issued
system.cpu.iq.FU_type_0::FloatMultAcc               0      0.00%     84.04% # Type of FU issued
system.cpu.iq.FU_type_0::FloatDiv                   0      0.00%     84.04% # Type of FU issued
system.cpu.iq.FU_type_0::FloatMisc                  0      0.00%     84.04% # Type of FU issued
system.cpu.iq.FU_type_0::FloatSqrt                  0      0.00%     84.04% # Type of FU issued
system.cpu.iq.FU_type_0::SimdAdd                    0      0.00%     84.04% # Type of FU issued
system.cpu.iq.FU_type_0::SimdAddAcc                 0      0.00%     84.04% # Type of FU issued
system.cpu.iq.FU_type_0::SimdAlu                  104      0.00%     84.04% # Type of FU issued
system.cpu.iq.FU_type_0::SimdCmp                    0      0.00%     84.04% # Type of FU issued
system.cpu.iq.FU_type_0::SimdCvt                   98      0.00%     84.04% # Type of FU issued
system.cpu.iq.FU_type_0::SimdMisc                 217      0.00%     84.04% # Type of FU issued
system.cpu.iq.FU_type_0::SimdMult                   0      0.00%     84.04% # Type of FU issued
system.cpu.iq.FU_type_0::SimdMultAcc                0      0.00%     84.04% # Type of FU issued
system.cpu.iq.FU_type_0::SimdShift                  0      0.00%     84.04% # Type of FU issued
system.cpu.iq.FU_type_0::SimdShiftAcc               0      0.00%     84.04% # Type of FU issued
system.cpu.iq.FU_type_0::SimdSqrt                   0      0.00%     84.04% # Type of FU issued
system.cpu.iq.FU_type_0::SimdFloatAdd               0      0.00%     84.04% # Type of FU issued
system.cpu.iq.FU_type_0::SimdFloatAlu               0      0.00%     84.04% # Type of FU issued
system.cpu.iq.FU_type_0::SimdFloatCmp               0      0.00%     84.04% # Type of FU issued
system.cpu.iq.FU_type_0::SimdFloatCvt               0      0.00%     84.04% # Type of FU issued
system.cpu.iq.FU_type_0::SimdFloatDiv               0      0.00%     84.04% # Type of FU issued
system.cpu.iq.FU_type_0::SimdFloatMisc              0      0.00%     84.04% # Type of FU issued
system.cpu.iq.FU_type_0::SimdFloatMult              0      0.00%     84.04% # Type of FU issued
system.cpu.iq.FU_type_0::SimdFloatMultAcc            0      0.00%     84.04% # Type of FU issued
system.cpu.iq.FU_type_0::SimdFloatSqrt              0      0.00%     84.04% # Type of FU issued
system.cpu.iq.FU_type_0::SimdAes                    0      0.00%     84.04% # Type of FU issued
system.cpu.iq.FU_type_0::SimdAesMix                 0      0.00%     84.04% # Type of FU issued
system.cpu.iq.FU_type_0::SimdSha1Hash               0      0.00%     84.04% # Type of FU issued
system.cpu.iq.FU_type_0::SimdSha1Hash2              0      0.00%     84.04% # Type of FU issued
system.cpu.iq.FU_type_0::SimdSha256Hash             0      0.00%     84.04% # Type of FU issued
system.cpu.iq.FU_type_0::SimdSha256Hash2            0      0.00%     84.04% # Type of FU issued
system.cpu.iq.FU_type_0::SimdShaSigma2              0      0.00%     84.04% # Type of FU issued
system.cpu.iq.FU_type_0::SimdShaSigma3              0      0.00%     84.04% # Type of FU issued
system.cpu.iq.FU_type_0::MemRead             11190535     12.00%     96.04% # Type of FU issued
system.cpu.iq.FU_type_0::MemWrite             3691364      3.96%    100.00% # Type of FU issued
system.cpu.iq.FU_type_0::FloatMemRead              90      0.00%    100.00% # Type of FU issued
system.cpu.iq.FU_type_0::FloatMemWrite            234      0.00%    100.00% # Type of FU issued
system.cpu.iq.FU_type_0::IprAccess                  0      0.00%    100.00% # Type of FU issued
system.cpu.iq.FU_type_0::InstPrefetch               0      0.00%    100.00% # Type of FU issued
system.cpu.iq.FU_type_0::total               93221012                       # Type of FU issued
system.cpu.iq.rate                           2.952131                       # Inst issue rate
system.cpu.iq.fu_busy_cnt                     6489267                       # FU busy when requested
system.cpu.iq.fu_busy_rate                   0.069612                       # FU busy rate (busy events/executed inst)
system.cpu.iq.int_inst_queue_reads          227775928                       # Number of integer instruction queue reads
system.cpu.iq.int_inst_queue_writes         175168014                       # Number of integer instruction queue writes
system.cpu.iq.int_inst_queue_wakeup_accesses     87092325                       # Number of integer instruction queue wakeup accesses
system.cpu.iq.fp_inst_queue_reads                1689                       # Number of floating instruction queue reads
system.cpu.iq.fp_inst_queue_writes               2190                       # Number of floating instruction queue writes
system.cpu.iq.fp_inst_queue_wakeup_accesses          754                       # Number of floating instruction queue wakeup accesses
system.cpu.iq.vec_inst_queue_reads                  0                       # Number of vector instruction queue reads
system.cpu.iq.vec_inst_queue_writes                 0                       # Number of vector instruction queue writes
system.cpu.iq.vec_inst_queue_wakeup_accesses            0                       # Number of vector instruction queue wakeup accesses
system.cpu.iq.int_alu_accesses               99568394                       # Number of integer alu accesses
system.cpu.iq.fp_alu_accesses                     848                       # Number of floating point alu accesses
system.cpu.iq.vec_alu_accesses                      0                       # Number of vector alu accesses
system.cpu.iew.lsq.thread0.forwLoads            65860                       # Number of loads that had data forwarded from stores
system.cpu.iew.lsq.thread0.invAddrLoads             0                       # Number of loads ignored due to an invalid address
system.cpu.iew.lsq.thread0.squashedLoads      7136460                       # Number of loads squashed
system.cpu.iew.lsq.thread0.ignoredResponses            5                       # Number of memory responses ignored because the instruction is squashed
system.cpu.iew.lsq.thread0.memOrderViolation           46                       # Number of memory ordering violations
system.cpu.iew.lsq.thread0.squashedStores      2193015                       # Number of stores squashed
system.cpu.iew.lsq.thread0.invAddrSwpfs             0                       # Number of software prefetches ignored due to an invalid address
system.cpu.iew.lsq.thread0.blockedLoads             0                       # Number of blocked loads due to partial load-store forwarding
system.cpu.iew.lsq.thread0.rescheduledLoads            0                       # Number of loads that were rescheduled
system.cpu.iew.lsq.thread0.cacheBlocked             1                       # Number of times an access to memory failed due to the cache being blocked
system.cpu.iew.iewIdleCycles                        0                       # Number of cycles IEW is idle
system.cpu.iew.iewSquashCycles                1491024                       # Number of cycles IEW is squashing
system.cpu.iew.iewBlockCycles                 6859321                       # Number of cycles IEW is blocking
system.cpu.iew.iewUnblockCycles                  6634                       # Number of cycles IEW is unblocking
system.cpu.iew.iewDispatchedInsts           113510491                       # Number of instructions dispatched to IQ
system.cpu.iew.iewDispSquashedInsts                23                       # Number of squashed instructions skipped by dispatch
system.cpu.iew.iewDispLoadInsts              13289419                       # Number of dispatched load instructions
system.cpu.iew.iewDispStoreInsts              4699214                       # Number of dispatched store instructions
system.cpu.iew.iewDispNonSpecInsts               2951                       # Number of dispatched non-speculative instructions
system.cpu.iew.iewIQFullEvents                      8                       # Number of times the IQ has become full, causing a stall
system.cpu.iew.iewLSQFullEvents                  6607                       # Number of times the LSQ has become full, causing a stall
system.cpu.iew.memOrderViolationEvents             46                       # Number of memory order violations
system.cpu.iew.predictedTakenIncorrect        1347276                       # Number of branches that were predicted taken incorrectly
system.cpu.iew.predictedNotTakenIncorrect       473884                       # Number of branches that were predicted not taken incorrectly
system.cpu.iew.branchMispredicts              1821160                       # Number of branch mispredicts detected at execute
system.cpu.iew.iewExecutedInsts              89284796                       # Number of executed instructions
system.cpu.iew.iewExecLoadInsts              10210700                       # Number of load instructions executed
system.cpu.iew.iewExecSquashedInsts           3936216                       # Number of squashed instructions skipped in execute
system.cpu.iew.exec_swp                             0                       # number of swp insts executed
system.cpu.iew.exec_nop                             0                       # number of nop insts executed
system.cpu.iew.exec_refs                     13681383                       # number of memory reference insts executed
system.cpu.iew.exec_branches                  6400183                       # Number of branches executed
system.cpu.iew.exec_stores                    3470683                       # Number of stores executed
system.cpu.iew.exec_rate                     2.827479                       # Inst execution rate
system.cpu.iew.wb_sent                       88002709                       # cumulative count of insts sent to commit
system.cpu.iew.wb_count                      87093079                       # cumulative count of insts written-back
system.cpu.iew.wb_producers                  67649659                       # num instructions producing a value
system.cpu.iew.wb_consumers                  82376101                       # num instructions consuming a value
system.cpu.iew.wb_rate                       2.758071                       # insts written-back per cycle
system.cpu.iew.wb_fanout                     0.821229                       # average fanout of values written-back
system.cpu.commit.commitSquashedInsts        61659949                       # The number of squashed insts skipped by commit
system.cpu.commit.commitNonSpecStalls              12                       # The number of times commit has been forced to stall to communicate backwards
system.cpu.commit.branchMispredicts           1491008                       # The number of times a branch was mispredicted
system.cpu.commit.committed_per_cycle::samples     23175993                       # Number of insts commited each cycle
system.cpu.commit.committed_per_cycle::mean     2.237264                       # Number of insts commited each cycle
system.cpu.commit.committed_per_cycle::stdev     2.938186                       # Number of insts commited each cycle
system.cpu.commit.committed_per_cycle::underflows            0      0.00%      0.00% # Number of insts commited each cycle
system.cpu.commit.committed_per_cycle::0     11417973     49.27%     49.27% # Number of insts commited each cycle
system.cpu.commit.committed_per_cycle::1      2411381     10.40%     59.67% # Number of insts commited each cycle
system.cpu.commit.committed_per_cycle::2      1300369      5.61%     65.28% # Number of insts commited each cycle
system.cpu.commit.committed_per_cycle::3      2126744      9.18%     74.46% # Number of insts commited each cycle
system.cpu.commit.committed_per_cycle::4       733383      3.16%     77.62% # Number of insts commited each cycle
system.cpu.commit.committed_per_cycle::5       614414      2.65%     80.27% # Number of insts commited each cycle
system.cpu.commit.committed_per_cycle::6       728334      3.14%     83.42% # Number of insts commited each cycle
system.cpu.commit.committed_per_cycle::7       664298      2.87%     86.28% # Number of insts commited each cycle
system.cpu.commit.committed_per_cycle::8      3179097     13.72%    100.00% # Number of insts commited each cycle
system.cpu.commit.committed_per_cycle::overflows            0      0.00%    100.00% # Number of insts commited each cycle
system.cpu.commit.committed_per_cycle::min_value            0                       # Number of insts commited each cycle
system.cpu.commit.committed_per_cycle::max_value            8                       # Number of insts commited each cycle
system.cpu.commit.committed_per_cycle::total     23175993                       # Number of insts commited each cycle
system.cpu.commit.committedInsts             23015444                       # Number of instructions committed
system.cpu.commit.committedOps               51850819                       # Number of ops (including micro ops) committed
system.cpu.commit.swp_count                         0                       # Number of s/w prefetches committed
system.cpu.commit.refs                        8659158                       # Number of memory references committed
system.cpu.commit.loads                       6152959                       # Number of loads committed
system.cpu.commit.membars                           0                       # Number of memory barriers committed
system.cpu.commit.branches                    5316080                       # Number of branches committed
system.cpu.commit.vec_insts                         0                       # Number of committed Vector instructions.
system.cpu.commit.fp_insts                        582                       # Number of committed floating point instructions.
system.cpu.commit.int_insts                  51686199                       # Number of committed integer instructions.
system.cpu.commit.function_calls               167086                       # Number of function calls committed.
system.cpu.commit.op_class_0::No_OpClass           70      0.00%      0.00% # Class of committed instruction
system.cpu.commit.op_class_0::IntAlu         43191188     83.30%     83.30% # Class of committed instruction
system.cpu.commit.op_class_0::IntMult              17      0.00%     83.30% # Class of committed instruction
system.cpu.commit.op_class_0::IntDiv               42      0.00%     83.30% # Class of committed instruction
system.cpu.commit.op_class_0::FloatAdd             14      0.00%     83.30% # Class of committed instruction
system.cpu.commit.op_class_0::FloatCmp              0      0.00%     83.30% # Class of committed instruction
system.cpu.commit.op_class_0::FloatCvt              0      0.00%     83.30% # Class of committed instruction
system.cpu.commit.op_class_0::FloatMult             0      0.00%     83.30% # Class of committed instruction
system.cpu.commit.op_class_0::FloatMultAcc            0      0.00%     83.30% # Class of committed instruction
system.cpu.commit.op_class_0::FloatDiv              0      0.00%     83.30% # Class of committed instruction
system.cpu.commit.op_class_0::FloatMisc             0      0.00%     83.30% # Class of committed instruction
system.cpu.commit.op_class_0::FloatSqrt             0      0.00%     83.30% # Class of committed instruction
system.cpu.commit.op_class_0::SimdAdd               0      0.00%     83.30% # Class of committed instruction
system.cpu.commit.op_class_0::SimdAddAcc            0      0.00%     83.30% # Class of committed instruction
system.cpu.commit.op_class_0::SimdAlu              94      0.00%     83.30% # Class of committed instruction
system.cpu.commit.op_class_0::SimdCmp               0      0.00%     83.30% # Class of committed instruction
system.cpu.commit.op_class_0::SimdCvt              74      0.00%     83.30% # Class of committed instruction
system.cpu.commit.op_class_0::SimdMisc            162      0.00%     83.30% # Class of committed instruction
system.cpu.commit.op_class_0::SimdMult              0      0.00%     83.30% # Class of committed instruction
system.cpu.commit.op_class_0::SimdMultAcc            0      0.00%     83.30% # Class of committed instruction
system.cpu.commit.op_class_0::SimdShift             0      0.00%     83.30% # Class of committed instruction
system.cpu.commit.op_class_0::SimdShiftAcc            0      0.00%     83.30% # Class of committed instruction
system.cpu.commit.op_class_0::SimdSqrt              0      0.00%     83.30% # Class of committed instruction
system.cpu.commit.op_class_0::SimdFloatAdd            0      0.00%     83.30% # Class of committed instruction
system.cpu.commit.op_class_0::SimdFloatAlu            0      0.00%     83.30% # Class of committed instruction
system.cpu.commit.op_class_0::SimdFloatCmp            0      0.00%     83.30% # Class of committed instruction
system.cpu.commit.op_class_0::SimdFloatCvt            0      0.00%     83.30% # Class of committed instruction
system.cpu.commit.op_class_0::SimdFloatDiv            0      0.00%     83.30% # Class of committed instruction
system.cpu.commit.op_class_0::SimdFloatMisc            0      0.00%     83.30% # Class of committed instruction
system.cpu.commit.op_class_0::SimdFloatMult            0      0.00%     83.30% # Class of committed instruction
system.cpu.commit.op_class_0::SimdFloatMultAcc            0      0.00%     83.30% # Class of committed instruction
system.cpu.commit.op_class_0::SimdFloatSqrt            0      0.00%     83.30% # Class of committed instruction
system.cpu.commit.op_class_0::SimdAes               0      0.00%     83.30% # Class of committed instruction
system.cpu.commit.op_class_0::SimdAesMix            0      0.00%     83.30% # Class of committed instruction
system.cpu.commit.op_class_0::SimdSha1Hash            0      0.00%     83.30% # Class of committed instruction
system.cpu.commit.op_class_0::SimdSha1Hash2            0      0.00%     83.30% # Class of committed instruction
system.cpu.commit.op_class_0::SimdSha256Hash            0      0.00%     83.30% # Class of committed instruction
system.cpu.commit.op_class_0::SimdSha256Hash2            0      0.00%     83.30% # Class of committed instruction
system.cpu.commit.op_class_0::SimdShaSigma2            0      0.00%     83.30% # Class of committed instruction
system.cpu.commit.op_class_0::SimdShaSigma3            0      0.00%     83.30% # Class of committed instruction
system.cpu.commit.op_class_0::MemRead         6152907     11.87%     95.17% # Class of committed instruction
system.cpu.commit.op_class_0::MemWrite        2506047      4.83%    100.00% # Class of committed instruction
system.cpu.commit.op_class_0::FloatMemRead           52      0.00%    100.00% # Class of committed instruction
system.cpu.commit.op_class_0::FloatMemWrite          152      0.00%    100.00% # Class of committed instruction
system.cpu.commit.op_class_0::IprAccess             0      0.00%    100.00% # Class of committed instruction
system.cpu.commit.op_class_0::InstPrefetch            0      0.00%    100.00% # Class of committed instruction
system.cpu.commit.op_class_0::total          51850819                       # Class of committed instruction
system.cpu.commit.bw_lim_events               3179097                       # number cycles where commit BW limit reached
system.cpu.rob.rob_reads                    133507664                       # The number of ROB reads
system.cpu.rob.rob_writes                   235446281                       # The number of ROB writes
system.cpu.timesIdled                             383                       # Number of times that the entire CPU went into an idle state and unscheduled itself
system.cpu.idleCycles                           51431                       # Total number of cycles that the CPU has spent unscheduled due to idling
system.cpu.committedInsts                    23015444                       # Number of Instructions Simulated
system.cpu.committedOps                      51850819                       # Number of Ops (including micro ops) Simulated
system.cpu.cpi                               1.372015                       # CPI: Cycles Per Instruction
system.cpu.cpi_total                         1.372015                       # CPI: Total CPI of All Threads
system.cpu.ipc                               0.728855                       # IPC: Instructions Per Cycle
system.cpu.ipc_total                         0.728855                       # IPC: Total IPC of All Threads
system.cpu.int_regfile_reads                 97420596                       # number of integer regfile reads
system.cpu.int_regfile_writes                77842479                       # number of integer regfile writes
system.cpu.fp_regfile_reads                      1124                       # number of floating regfile reads
system.cpu.fp_regfile_writes                      470                       # number of floating regfile writes
system.cpu.cc_regfile_reads                  28367429                       # number of cc regfile reads
system.cpu.cc_regfile_writes                 43706528                       # number of cc regfile writes
system.cpu.misc_regfile_reads                33804862                       # number of misc regfile reads
system.cpu.dcache.tags.pwrStateResidencyTicks::UNDEFINED  15788765500                       # Cumulative time (in ticks) in various power states
system.cpu.dcache.tags.tagsinuse           257.646604                       # Cycle average of tags in use
system.cpu.dcache.tags.total_refs            12650387                       # Total number of references to valid blocks.
system.cpu.dcache.tags.sampled_refs               278                       # Sample count of references to valid blocks.
system.cpu.dcache.tags.avg_refs          45504.989209                       # Average number of references to valid blocks.
system.cpu.dcache.tags.warmup_cycle            180500                       # Cycle when the warmup percentage was hit.
system.cpu.dcache.tags.occ_blocks::.cpu.data   257.646604                       # Average occupied blocks per requestor
system.cpu.dcache.tags.occ_percent::.cpu.data     0.251608                       # Average percentage of cache occupancy
system.cpu.dcache.tags.occ_percent::total     0.251608                       # Average percentage of cache occupancy
system.cpu.dcache.tags.occ_task_id_blocks::1024          277                       # Occupied blocks per task id
system.cpu.dcache.tags.age_task_id_blocks_1024::0           20                       # Occupied blocks per task id
system.cpu.dcache.tags.age_task_id_blocks_1024::4          257                       # Occupied blocks per task id
system.cpu.dcache.tags.occ_task_id_percent::1024     0.270508                       # Percentage of cache occupancy per task id
system.cpu.dcache.tags.tag_accesses          25301288                       # Number of tag accesses
system.cpu.dcache.tags.data_accesses         25301288                       # Number of data accesses
system.cpu.dcache.pwrStateResidencyTicks::UNDEFINED  15788765500                       # Cumulative time (in ticks) in various power states
system.cpu.dcache.ReadReq_hits::.cpu.data     10144063                       # number of ReadReq hits
system.cpu.dcache.ReadReq_hits::total        10144063                       # number of ReadReq hits
system.cpu.dcache.WriteReq_hits::.cpu.data      2506046                       # number of WriteReq hits
system.cpu.dcache.WriteReq_hits::total        2506046                       # number of WriteReq hits
system.cpu.dcache.demand_hits::.cpu.data     12650109                       # number of demand (read+write) hits
system.cpu.dcache.demand_hits::total         12650109                       # number of demand (read+write) hits
system.cpu.dcache.overall_hits::.cpu.data     12650109                       # number of overall hits
system.cpu.dcache.overall_hits::total        12650109                       # number of overall hits
system.cpu.dcache.ReadReq_misses::.cpu.data          243                       # number of ReadReq misses
system.cpu.dcache.ReadReq_misses::total           243                       # number of ReadReq misses
system.cpu.dcache.WriteReq_misses::.cpu.data          153                       # number of WriteReq misses
system.cpu.dcache.WriteReq_misses::total          153                       # number of WriteReq misses
system.cpu.dcache.demand_misses::.cpu.data          396                       # number of demand (read+write) misses
system.cpu.dcache.demand_misses::total            396                       # number of demand (read+write) misses
system.cpu.dcache.overall_misses::.cpu.data          396                       # number of overall misses
system.cpu.dcache.overall_misses::total           396                       # number of overall misses
system.cpu.dcache.ReadReq_miss_latency::.cpu.data     19615000                       # number of ReadReq miss cycles
system.cpu.dcache.ReadReq_miss_latency::total     19615000                       # number of ReadReq miss cycles
system.cpu.dcache.WriteReq_miss_latency::.cpu.data     12689000                       # number of WriteReq miss cycles
system.cpu.dcache.WriteReq_miss_latency::total     12689000                       # number of WriteReq miss cycles
system.cpu.dcache.demand_miss_latency::.cpu.data     32304000                       # number of demand (read+write) miss cycles
system.cpu.dcache.demand_miss_latency::total     32304000                       # number of demand (read+write) miss cycles
system.cpu.dcache.overall_miss_latency::.cpu.data     32304000                       # number of overall miss cycles
system.cpu.dcache.overall_miss_latency::total     32304000                       # number of overall miss cycles
system.cpu.dcache.ReadReq_accesses::.cpu.data     10144306                       # number of ReadReq accesses(hits+misses)
system.cpu.dcache.ReadReq_accesses::total     10144306                       # number of ReadReq accesses(hits+misses)
system.cpu.dcache.WriteReq_accesses::.cpu.data      2506199                       # number of WriteReq accesses(hits+misses)
system.cpu.dcache.WriteReq_accesses::total      2506199                       # number of WriteReq accesses(hits+misses)
system.cpu.dcache.demand_accesses::.cpu.data     12650505                       # number of demand (read+write) accesses
system.cpu.dcache.demand_accesses::total     12650505                       # number of demand (read+write) accesses
[...]
system.l2.ReadSharedReq_accesses::.cpu.data          126                       # number of ReadSharedReq accesses(hits+misses)
system.l2.ReadSharedReq_accesses::total           126                       # number of ReadSharedReq accesses(hits+misses)
system.l2.demand_accesses::.cpu.inst              756                       # number of demand (read+write) accesses
system.l2.demand_accesses::.cpu.data              278                       # number of demand (read+write) accesses
system.l2.demand_accesses::total                 1034                       # number of demand (read+write) accesses
system.l2.overall_accesses::.cpu.inst             756                       # number of overall (read+write) accesses
system.l2.overall_accesses::.cpu.data             278                       # number of overall (read+write) accesses
system.l2.overall_accesses::total                1034                       # number of overall (read+write) accesses
system.l2.ReadExReq_miss_rate::.cpu.data            1                       # miss rate for ReadExReq accesses
system.l2.ReadExReq_miss_rate::total                1                       # miss rate for ReadExReq accesses
system.l2.ReadCleanReq_miss_rate::.cpu.inst     0.953704                       # miss rate for ReadCleanReq accesses
system.l2.ReadCleanReq_miss_rate::total      0.953704                       # miss rate for ReadCleanReq accesses
system.l2.ReadSharedReq_miss_rate::.cpu.data     0.984127                       # miss rate for ReadSharedReq accesses
system.l2.ReadSharedReq_miss_rate::total     0.984127                       # miss rate for ReadSharedReq accesses
system.l2.demand_miss_rate::.cpu.inst        0.953704                       # miss rate for demand accesses
system.l2.demand_miss_rate::.cpu.data        0.992806                       # miss rate for demand accesses
system.l2.demand_miss_rate::total            0.964217                       # miss rate for demand accesses
system.l2.overall_miss_rate::.cpu.inst       0.953704                       # miss rate for overall accesses
system.l2.overall_miss_rate::.cpu.data       0.992806                       # miss rate for overall accesses
system.l2.overall_miss_rate::total           0.964217                       # miss rate for overall accesses
system.l2.ReadExReq_avg_miss_latency::.cpu.data 80453.947368                       # average ReadExReq miss latency
system.l2.ReadExReq_avg_miss_latency::total 80453.947368                       # average ReadExReq miss latency
system.l2.ReadCleanReq_avg_miss_latency::.cpu.inst 86972.954230                       # average ReadCleanReq miss latency
system.l2.ReadCleanReq_avg_miss_latency::total 86972.954230                       # average ReadCleanReq miss latency
system.l2.ReadSharedReq_avg_miss_latency::.cpu.data        95000                       # average ReadSharedReq miss latency
system.l2.ReadSharedReq_avg_miss_latency::total        95000                       # average ReadSharedReq miss latency
system.l2.demand_avg_miss_latency::.cpu.inst 86972.954230                       # average overall miss latency
system.l2.demand_avg_miss_latency::.cpu.data 86989.130435                       # average overall miss latency
system.l2.demand_avg_miss_latency::total 86977.432297                       # average overall miss latency
system.l2.overall_avg_miss_latency::.cpu.inst 86972.954230                       # average overall miss latency
system.l2.overall_avg_miss_latency::.cpu.data 86989.130435                       # average overall miss latency
system.l2.overall_avg_miss_latency::total 86977.432297                       # average overall miss latency
system.l2.blocked_cycles::no_mshrs                  0                       # number of cycles access was blocked
system.l2.blocked_cycles::no_targets                0                       # number of cycles access was blocked
system.l2.blocked::no_mshrs                         0                       # number of cycles access was blocked
system.l2.blocked::no_targets                       0                       # number of cycles access was blocked
system.l2.avg_blocked_cycles::no_mshrs            nan                       # average number of cycles each access was blocked
system.l2.avg_blocked_cycles::no_targets          nan                       # average number of cycles each access was blocked
system.l2.ReadSharedReq_mshr_hits::.cpu.data            1                       # number of ReadSharedReq MSHR hits
system.l2.ReadSharedReq_mshr_hits::total            1                       # number of ReadSharedReq MSHR hits
system.l2.demand_mshr_hits::.cpu.data               1                       # number of demand (read+write) MSHR hits
system.l2.demand_mshr_hits::total                   1                       # number of demand (read+write) MSHR hits
system.l2.overall_mshr_hits::.cpu.data              1                       # number of overall MSHR hits
system.l2.overall_mshr_hits::total                  1                       # number of overall MSHR hits
system.l2.ReadExReq_mshr_misses::.cpu.data          152                       # number of ReadExReq MSHR misses
system.l2.ReadExReq_mshr_misses::total            152                       # number of ReadExReq MSHR misses
system.l2.ReadCleanReq_mshr_misses::.cpu.inst          721                       # number of ReadCleanReq MSHR misses
system.l2.ReadCleanReq_mshr_misses::total          721                       # number of ReadCleanReq MSHR misses
system.l2.ReadSharedReq_mshr_misses::.cpu.data          123                       # number of ReadSharedReq MSHR misses
system.l2.ReadSharedReq_mshr_misses::total          123                       # number of ReadSharedReq MSHR misses
system.l2.demand_mshr_misses::.cpu.inst           721                       # number of demand (read+write) MSHR misses
system.l2.demand_mshr_misses::.cpu.data           275                       # number of demand (read+write) MSHR misses
system.l2.demand_mshr_misses::total               996                       # number of demand (read+write) MSHR misses
system.l2.overall_mshr_misses::.cpu.inst          721                       # number of overall MSHR misses
system.l2.overall_mshr_misses::.cpu.data          275                       # number of overall MSHR misses
system.l2.overall_mshr_misses::total              996                       # number of overall MSHR misses
system.l2.ReadExReq_mshr_miss_latency::.cpu.data     10709000                       # number of ReadExReq MSHR miss cycles
system.l2.ReadExReq_mshr_miss_latency::total     10709000                       # number of ReadExReq MSHR miss cycles
system.l2.ReadCleanReq_mshr_miss_latency::.cpu.inst     55507500                       # number of ReadCleanReq MSHR miss cycles
system.l2.ReadCleanReq_mshr_miss_latency::total     55507500                       # number of ReadCleanReq MSHR miss cycles
system.l2.ReadSharedReq_mshr_miss_latency::.cpu.data     10495500                       # number of ReadSharedReq MSHR miss cycles
system.l2.ReadSharedReq_mshr_miss_latency::total     10495500                       # number of ReadSharedReq MSHR miss cycles
system.l2.demand_mshr_miss_latency::.cpu.inst     55507500                       # number of demand (read+write) MSHR miss cycles
system.l2.demand_mshr_miss_latency::.cpu.data     21204500                       # number of demand (read+write) MSHR miss cycles
system.l2.demand_mshr_miss_latency::total     76712000                       # number of demand (read+write) MSHR miss cycles
system.l2.overall_mshr_miss_latency::.cpu.inst     55507500                       # number of overall MSHR miss cycles
system.l2.overall_mshr_miss_latency::.cpu.data     21204500                       # number of overall MSHR miss cycles
system.l2.overall_mshr_miss_latency::total     76712000                       # number of overall MSHR miss cycles
system.l2.ReadExReq_mshr_miss_rate::.cpu.data            1                       # mshr miss rate for ReadExReq accesses
system.l2.ReadExReq_mshr_miss_rate::total            1                       # mshr miss rate for ReadExReq accesses
system.l2.ReadCleanReq_mshr_miss_rate::.cpu.inst     0.953704                       # mshr miss rate for ReadCleanReq accesses
system.l2.ReadCleanReq_mshr_miss_rate::total     0.953704                       # mshr miss rate for ReadCleanReq accesses
system.l2.ReadSharedReq_mshr_miss_rate::.cpu.data     0.976190                       # mshr miss rate for ReadSharedReq accesses
system.l2.ReadSharedReq_mshr_miss_rate::total     0.976190                       # mshr miss rate for ReadSharedReq accesses
system.l2.demand_mshr_miss_rate::.cpu.inst     0.953704                       # mshr miss rate for demand accesses
system.l2.demand_mshr_miss_rate::.cpu.data     0.989209                       # mshr miss rate for demand accesses
system.l2.demand_mshr_miss_rate::total       0.963250                       # mshr miss rate for demand accesses
system.l2.overall_mshr_miss_rate::.cpu.inst     0.953704                       # mshr miss rate for overall accesses
system.l2.overall_mshr_miss_rate::.cpu.data     0.989209                       # mshr miss rate for overall accesses
system.l2.overall_mshr_miss_rate::total      0.963250                       # mshr miss rate for overall accesses
system.l2.ReadExReq_avg_mshr_miss_latency::.cpu.data 70453.947368                       # average ReadExReq mshr miss latency
system.l2.ReadExReq_avg_mshr_miss_latency::total 70453.947368                       # average ReadExReq mshr miss latency
system.l2.ReadCleanReq_avg_mshr_miss_latency::.cpu.inst 76986.823856                       # average ReadCleanReq mshr miss latency
system.l2.ReadCleanReq_avg_mshr_miss_latency::total 76986.823856                       # average ReadCleanReq mshr miss latency
system.l2.ReadSharedReq_avg_mshr_miss_latency::.cpu.data 85329.268293                       # average ReadSharedReq mshr miss latency
system.l2.ReadSharedReq_avg_mshr_miss_latency::total 85329.268293                       # average ReadSharedReq mshr miss latency
system.l2.demand_avg_mshr_miss_latency::.cpu.inst 76986.823856                       # average overall mshr miss latency
system.l2.demand_avg_mshr_miss_latency::.cpu.data 77107.272727                       # average overall mshr miss latency
system.l2.demand_avg_mshr_miss_latency::total 77020.080321                       # average overall mshr miss latency
system.l2.overall_avg_mshr_miss_latency::.cpu.inst 76986.823856                       # average overall mshr miss latency
system.l2.overall_avg_mshr_miss_latency::.cpu.data 77107.272727                       # average overall mshr miss latency
system.l2.overall_avg_mshr_miss_latency::total 77020.080321                       # average overall mshr miss latency
system.l2.replacements                              0                       # number of replacements
system.membus.snoop_filter.tot_requests           995                       # Total number of requests made to the snoop filter.
system.membus.snoop_filter.hit_single_requests            0                       # Number of requests hitting in the snoop filter with a single holder of the requested data.
system.membus.snoop_filter.hit_multi_requests            0                       # Number of requests hitting in the snoop filter with multiple (>1) holders of the requested data.
system.membus.snoop_filter.tot_snoops               0                       # Total number of snoops made to the snoop filter.
system.membus.snoop_filter.hit_single_snoops            0                       # Number of snoops hitting in the snoop filter with a single holder of the requested data.
system.membus.snoop_filter.hit_multi_snoops            0                       # Number of snoops hitting in the snoop filter with multiple (>1) holders of the requested data.
system.membus.pwrStateResidencyTicks::UNDEFINED  15788765500                       # Cumulative time (in ticks) in various power states
system.membus.trans_dist::ReadResp                843                       # Transaction distribution
system.membus.trans_dist::ReadExReq               152                       # Transaction distribution
system.membus.trans_dist::ReadExResp              152                       # Transaction distribution
system.membus.trans_dist::ReadSharedReq           843                       # Transaction distribution
system.membus.pkt_count_system.l2.mem_side::system.mem_ctrls.port         1990                       # Packet count per connected master and slave (bytes)
system.membus.pkt_count_system.l2.mem_side::total         1990                       # Packet count per connected master and slave (bytes)
system.membus.pkt_count::total                   1990                       # Packet count per connected master and slave (bytes)
system.membus.pkt_size_system.l2.mem_side::system.mem_ctrls.port        63680                       # Cumulative packet size per connected master and slave (bytes)
system.membus.pkt_size_system.l2.mem_side::total        63680                       # Cumulative packet size per connected master and slave (bytes)
system.membus.pkt_size::total                   63680                       # Cumulative packet size per connected master and slave (bytes)
system.membus.snoops                                0                       # Total snoops (count)
system.membus.snoopTraffic                          0                       # Total snoop traffic (bytes)
system.membus.snoop_fanout::samples               995                       # Request fanout histogram
system.membus.snoop_fanout::mean                    0                       # Request fanout histogram
system.membus.snoop_fanout::stdev                   0                       # Request fanout histogram
system.membus.snoop_fanout::underflows              0      0.00%      0.00% # Request fanout histogram
system.membus.snoop_fanout::0                     995    100.00%    100.00% # Request fanout histogram
system.membus.snoop_fanout::1                       0      0.00%    100.00% # Request fanout histogram
system.membus.snoop_fanout::overflows               0      0.00%    100.00% # Request fanout histogram
system.membus.snoop_fanout::min_value               0                       # Request fanout histogram
system.membus.snoop_fanout::max_value               0                       # Request fanout histogram
system.membus.snoop_fanout::total                 995                       # Request fanout histogram
system.membus.reqLayer2.occupancy             1238500                       # Layer occupancy (ticks)
system.membus.reqLayer2.utilization               0.0                       # Layer utilization (%)
system.membus.respLayer1.occupancy            5280750                       # Layer occupancy (ticks)
system.membus.respLayer1.utilization              0.0                       # Layer utilization (%)
system.tol2bus.snoop_filter.tot_requests         1325                       # Total number of requests made to the snoop filter.
system.tol2bus.snoop_filter.hit_single_requests          295                       # Number of requests hitting in the snoop filter with a single holder of the requested data.
system.tol2bus.snoop_filter.hit_multi_requests            0                       # Number of requests hitting in the snoop filter with multiple (>1) holders of the requested data.
system.tol2bus.snoop_filter.tot_snoops              0                       # Total number of snoops made to the snoop filter.
system.tol2bus.snoop_filter.hit_single_snoops            0                       # Number of snoops hitting in the snoop filter with a single holder of the requested data.
system.tol2bus.snoop_filter.hit_multi_snoops            0                       # Number of snoops hitting in the snoop filter with multiple (>1) holders of the requested data.
system.tol2bus.pwrStateResidencyTicks::UNDEFINED  15788765500                       # Cumulative time (in ticks) in various power states
system.tol2bus.trans_dist::ReadResp               881                       # Transaction distribution
system.tol2bus.trans_dist::WritebackClean          290                       # Transaction distribution
system.tol2bus.trans_dist::CleanEvict               1                       # Transaction distribution
system.tol2bus.trans_dist::ReadExReq              152                       # Transaction distribution
system.tol2bus.trans_dist::ReadExResp             152                       # Transaction distribution
system.tol2bus.trans_dist::ReadCleanReq           756                       # Transaction distribution
system.tol2bus.trans_dist::ReadSharedReq          126                       # Transaction distribution
system.tol2bus.pkt_count_system.cpu.icache.mem_side::system.l2.cpu_side         1801                       # Packet count per connected master and slave (bytes)
system.tol2bus.pkt_count_system.cpu.dcache.mem_side::system.l2.cpu_side          557                       # Packet count per connected master and slave (bytes)
system.tol2bus.pkt_count::total                  2358                       # Packet count per connected master and slave (bytes)
system.tol2bus.pkt_size_system.cpu.icache.mem_side::system.l2.cpu_side        66880                       # Cumulative packet size per connected master and slave (bytes)
system.tol2bus.pkt_size_system.cpu.dcache.mem_side::system.l2.cpu_side        17792                       # Cumulative packet size per connected master and slave (bytes)
system.tol2bus.pkt_size::total                  84672                       # Cumulative packet size per connected master and slave (bytes)
system.tol2bus.snoops                               0                       # Total snoops (count)
system.tol2bus.snoopTraffic                         0                       # Total snoop traffic (bytes)
system.tol2bus.snoop_fanout::samples             1034                       # Request fanout histogram
system.tol2bus.snoop_fanout::mean            0.003868                       # Request fanout histogram
system.tol2bus.snoop_fanout::stdev           0.062107                       # Request fanout histogram
system.tol2bus.snoop_fanout::underflows             0      0.00%      0.00% # Request fanout histogram
system.tol2bus.snoop_fanout::0                   1030     99.61%     99.61% # Request fanout histogram
system.tol2bus.snoop_fanout::1                      4      0.39%    100.00% # Request fanout histogram
system.tol2bus.snoop_fanout::2                      0      0.00%    100.00% # Request fanout histogram
system.tol2bus.snoop_fanout::3                      0      0.00%    100.00% # Request fanout histogram
system.tol2bus.snoop_fanout::4                      0      0.00%    100.00% # Request fanout histogram
system.tol2bus.snoop_fanout::overflows              0      0.00%    100.00% # Request fanout histogram
system.tol2bus.snoop_fanout::min_value              0                       # Request fanout histogram
system.tol2bus.snoop_fanout::max_value              1                       # Request fanout histogram
system.tol2bus.snoop_fanout::total               1034                       # Request fanout histogram
system.tol2bus.reqLayer0.occupancy             952500                       # Layer occupancy (ticks)
system.tol2bus.reqLayer0.utilization              0.0                       # Layer utilization (%)
system.tol2bus.respLayer0.occupancy           1132500                       # Layer occupancy (ticks)
system.tol2bus.respLayer0.utilization             0.0                       # Layer utilization (%)
system.tol2bus.respLayer1.occupancy            417499                       # Layer occupancy (ticks)
system.tol2bus.respLayer1.utilization             0.0                       # Layer utilization (%)

---------- End Simulation Statistics   ----------
