
---------- Begin Simulation Statistics ----------
sim_seconds                                  0.014821                       # Number of seconds simulated
sim_ticks                                 14821383500                       # Number of ticks simulated
final_tick                                14821383500                       # Number of ticks from beginning of simulation (restored from checkpoints and never reset)
sim_freq                                 1000000000000                       # Frequency of simulated ticks
host_inst_rate                                 116639                       # Simulator instruction rate (inst/s)
host_op_rate                                   262773                       # Simulator op (including micro ops) rate (op/s)
host_tick_rate                               75112790                       # Simulator tick rate (ticks/s)
host_mem_usage                                 676744                       # Number of bytes of host memory used
host_seconds                                   197.32                       # Real time elapsed on the host
sim_insts                                    23015444                       # Number of instructions simulated
sim_ops                                      51850819                       # Number of ops (including micro ops) simulated
system.voltage_domain.voltage                       1                       # Voltage in Volts
system.clk_domain.clock                          1000                       # Clock period in ticks
system.mem_ctrls.pwrStateResidencyTicks::UNDEFINED  14821383500                       # Cumulative time (in ticks) in various power states
system.mem_ctrls.bytes_read::.cpu.inst          45632                       # Number of bytes read from this memory
system.mem_ctrls.bytes_read::.cpu.data          17408                       # Number of bytes read from this memory
system.mem_ctrls.bytes_read::total              63040                       # Number of bytes read from this memory
system.mem_ctrls.bytes_inst_read::.cpu.inst        45632                       # Number of instructions bytes read from this memory
system.mem_ctrls.bytes_inst_read::total         45632                       # Number of instructions bytes read from this memory
system.mem_ctrls.num_reads::.cpu.inst             713                       # Number of read requests responded to by this memory
system.mem_ctrls.num_reads::.cpu.data             272                       # Number of read requests responded to by this memory
system.mem_ctrls.num_reads::total                 985                       # Number of read requests responded to by this memory
system.mem_ctrls.bw_read::.cpu.inst           3078795                       # Total read bandwidth from this memory (bytes/s)
system.mem_ctrls.bw_read::.cpu.data           1174519                       # Total read bandwidth from this memory (bytes/s)
system.mem_ctrls.bw_read::total               4253314                       # Total read bandwidth from this memory (bytes/s)
system.mem_ctrls.bw_inst_read::.cpu.inst      3078795                       # Instruction read bandwidth from this memory (bytes/s)
system.mem_ctrls.bw_inst_read::total          3078795                       # Instruction read bandwidth from this memory (bytes/s)
system.mem_ctrls.bw_total::.cpu.inst          3078795                       # Total bandwidth to/from this memory (bytes/s)
system.mem_ctrls.bw_total::.cpu.data          1174519                       # Total bandwidth to/from this memory (bytes/s)
system.mem_ctrls.bw_total::total              4253314                       # Total bandwidth to/from this memory (bytes/s)
system.mem_ctrls.avgPriority_.cpu.inst::samples       713.00                       # Average QoS priority value for accepted requests
system.mem_ctrls.avgPriority_.cpu.data::samples       272.00                       # Average QoS priority value for accepted requests
system.mem_ctrls.priorityMinLatency      0.000000018750                       # per QoS priority minimum request to response latency (s)
system.mem_ctrls.priorityMaxLatency      0.000001099750                       # per QoS priority maximum request to response latency (s)
system.mem_ctrls.numReadWriteTurnArounds            0                       # Number of turnarounds from READ to WRITE
system.mem_ctrls.numWriteReadTurnArounds            0                       # Number of turnarounds from WRITE to READ
system.mem_ctrls.numStayReadState                1945                       # Number of times bus staying in READ state
system.mem_ctrls.numStayWriteState                  0                       # Number of times bus staying in WRITE state
system.mem_ctrls.readReqs                         985                       # Number of read requests accepted
system.mem_ctrls.writeReqs                          0                       # Number of write requests accepted
system.mem_ctrls.readBursts                       985                       # Number of DRAM read bursts, including those serviced by the write queue
system.mem_ctrls.writeBursts                        0                       # Number of DRAM write bursts, including those merged in the write queue
system.mem_ctrls.bytesReadDRAM                  63040                       # Total number of bytes read from DRAM
system.mem_ctrls.bytesReadWrQ                       0                       # Total number of bytes read from write queue
system.mem_ctrls.bytesWritten                       0                       # Total number of bytes written to DRAM
system.mem_ctrls.bytesReadSys                   63040                       # Total read bytes from the system interface side
system.mem_ctrls.bytesWrittenSys                    0                       # Total written bytes from the system interface side
system.mem_ctrls.servicedByWrQ                      0                       # Number of DRAM read bursts serviced by the write queue
system.mem_ctrls.mergedWrBursts                     0                       # Number of DRAM write bursts merged with an existing one
system.mem_ctrls.neitherReadNorWriteReqs            0                       # Number of requests that are neither read nor write
system.mem_ctrls.perBankRdBursts::0                89                       # Per bank write bursts
system.mem_ctrls.perBankRdBursts::1               121                       # Per bank write bursts
system.mem_ctrls.perBankRdBursts::2                48                       # Per bank write bursts
system.mem_ctrls.perBankRdBursts::3                26                       # Per bank write bursts
system.mem_ctrls.perBankRdBursts::4                 1                       # Per bank write bursts
system.mem_ctrls.perBankRdBursts::5                66                       # Per bank write bursts
system.mem_ctrls.perBankRdBursts::6                66                       # Per bank write bursts
system.mem_ctrls.perBankRdBursts::7               118                       # Per bank write bursts
system.mem_ctrls.perBankRdBursts::8                 9                       # Per bank write bursts
system.mem_ctrls.perBankRdBursts::9               110                       # Per bank write bursts
system.mem_ctrls.perBankRdBursts::10              102                       # Per bank write bursts
system.mem_ctrls.perBankRdBursts::11               64                       # Per bank write bursts
system.mem_ctrls.perBankRdBursts::12               27                       # Per bank write bursts
system.mem_ctrls.perBankRdBursts::13               48                       # Per bank write bursts
system.mem_ctrls.perBankRdBursts::14               27                       # Per bank write bursts
system.mem_ctrls.perBankRdBursts::15               63                       # Per bank write bursts
system.mem_ctrls.perBankWrBursts::0                 0                       # Per bank write bursts
system.mem_ctrls.perBankWrBursts::1                 0                       # Per bank write bursts
system.mem_ctrls.perBankWrBursts::2                 0                       # Per bank write bursts
system.mem_ctrls.perBankWrBursts::3                 0                       # Per bank write bursts
system.mem_ctrls.perBankWrBursts::4                 0                       # Per bank write bursts
system.mem_ctrls.perBankWrBursts::5                 0                       # Per bank write bursts
system.mem_ctrls.perBankWrBursts::6                 0                       # Per bank write bursts
system.mem_ctrls.perBankWrBursts::7                 0                       # Per bank write bursts
system.mem_ctrls.perBankWrBursts::8                 0                       # Per bank write bursts
system.mem_ctrls.perBankWrBursts::9                 0                       # Per bank write bursts
system.mem_ctrls.perBankWrBursts::10                0                       # Per bank write bursts
system.mem_ctrls.perBankWrBursts::11                0                       # Per bank write bursts
system.mem_ctrls.perBankWrBursts::12                0                       # Per bank write bursts
system.mem_ctrls.perBankWrBursts::13                0                       # Per bank write bursts
system.mem_ctrls.perBankWrBursts::14                0                       # Per bank write bursts
system.mem_ctrls.perBankWrBursts::15                0                       # Per bank write bursts
system.mem_ctrls.numRdRetry                         0                       # Number of times read queue was full causing retry
system.mem_ctrls.numWrRetry                         0                       # Number of times write queue was full causing retry
system.mem_ctrls.totGap                   14821323500                       # Total gap between requests
system.mem_ctrls.readPktSize::0                     0                       # Read request sizes (log2)
system.mem_ctrls.readPktSize::1                     0                       # Read request sizes (log2)
system.mem_ctrls.readPktSize::2                     0                       # Read request sizes (log2)
system.mem_ctrls.readPktSize::3                     0                       # Read request sizes (log2)
system.mem_ctrls.readPktSize::4                     0                       # Read request sizes (log2)
system.mem_ctrls.readPktSize::5                     0                       # Read request sizes (log2)
system.mem_ctrls.readPktSize::6                   985                       # Read request sizes (log2)
system.mem_ctrls.writePktSize::0                    0                       # Write request sizes (log2)
system.mem_ctrls.writePktSize::1                    0                       # Write request sizes (log2)
system.mem_ctrls.writePktSize::2                    0                       # Write request sizes (log2)
system.mem_ctrls.writePktSize::3                    0                       # Write request sizes (log2)
system.mem_ctrls.writePktSize::4                    0                       # Write request sizes (log2)
system.mem_ctrls.writePktSize::5                    0                       # Write request sizes (log2)
system.mem_ctrls.writePktSize::6                    0                       # Write request sizes (log2)
system.mem_ctrls.rdQLenPdf::0                     539                       # What read queue length does an incoming req see
system.mem_ctrls.rdQLenPdf::1                     302                       # What read queue length does an incoming req see
system.mem_ctrls.rdQLenPdf::2                     111                       # What read queue length does an incoming req see
system.mem_ctrls.rdQLenPdf::3                      27                       # What read queue length does an incoming req see
system.mem_ctrls.rdQLenPdf::4                       5                       # What read queue length does an incoming req see
system.mem_ctrls.rdQLenPdf::5                       1                       # What read queue length does an incoming req see
system.mem_ctrls.rdQLenPdf::6                       0                       # What read queue length does an incoming req see
system.mem_ctrls.rdQLenPdf::7                       0                       # What read queue length does an incoming req see
system.mem_ctrls.rdQLenPdf::8                       0                       # What read queue length does an incoming req see
system.mem_ctrls.rdQLenPdf::9                       0                       # What read queue length does an incoming req see
system.mem_ctrls.rdQLenPdf::10                      0                       # What read queue length does an incoming req see
system.mem_ctrls.rdQLenPdf::11                      0                       # What read queue length does an incoming req see
system.mem_ctrls.rdQLenPdf::12                      0                       # What read queue length does an incoming req see
system.mem_ctrls.rdQLenPdf::13                      0                       # What read queue length does an incoming req see
system.mem_ctrls.rdQLenPdf::14                      0                       # What read queue length does an incoming req see
system.mem_ctrls.rdQLenPdf::15                      0                       # What read queue length does an incoming req see
system.mem_ctrls.rdQLenPdf::16                      0                       # What read queue length does an incoming req see
system.mem_ctrls.rdQLenPdf::17                      0                       # What read queue length does an incoming req see
system.mem_ctrls.rdQLenPdf::18                      0                       # What read queue length does an incoming req see
system.mem_ctrls.rdQLenPdf::19                      0                       # What read queue length does an incoming req see
system.mem_ctrls.rdQLenPdf::20                      0                       # What read queue length does an incoming req see
system.mem_ctrls.rdQLenPdf::21                      0                       # What read queue length does an incoming req see
system.mem_ctrls.rdQLenPdf::22                      0                       # What read queue length does an incoming req see
system.mem_ctrls.rdQLenPdf::23                      0                       # What read queue length does an incoming req see
system.mem_ctrls.rdQLenPdf::24                      0                       # What read queue length does an incoming req see
system.mem_ctrls.rdQLenPdf::25                      0                       # What read queue length does an incoming req see
system.mem_ctrls.rdQLenPdf::26                      0                       # What read queue length does an incoming req see
system.mem_ctrls.rdQLenPdf::27                      0                       # What read queue length does an incoming req see
system.mem_ctrls.rdQLenPdf::28                      0                       # What read queue length does an incoming req see
system.mem_ctrls.rdQLenPdf::29                      0                       # What read queue length does an incoming req see
system.mem_ctrls.rdQLenPdf::30                      0                       # What read queue length does an incoming req see
system.mem_ctrls.rdQLenPdf::31                      0                       # What read queue length does an incoming req see
system.mem_ctrls.wrQLenPdf::0                       0                       # What write queue length does an incoming req see
system.mem_ctrls.wrQLenPdf::1                       0                       # What write queue length does an incoming req see
system.mem_ctrls.wrQLenPdf::2                       0                       # What write queue length does an incoming req see
system.mem_ctrls.wrQLenPdf::3                       0                       # What write queue length does an incoming req see
system.mem_ctrls.wrQLenPdf::4                       0                       # What write queue length does an incoming req see
system.mem_ctrls.wrQLenPdf::5                       0                       # What write queue length does an incoming req see
system.mem_ctrls.wrQLenPdf::6                       0                       # What write queue length does an incoming req see
system.mem_ctrls.wrQLenPdf::7                       0                       # What write queue length does an incoming req see
system.mem_ctrls.wrQLenPdf::8                       0                       # What write queue length does an incoming req see
system.mem_ctrls.wrQLenPdf::9                       0                       # What write queue length does an incoming req see
system.mem_ctrls.wrQLenPdf::10                      0                       # What write queue length does an incoming req see
system.mem_ctrls.wrQLenPdf::11                      0                       # What write queue length does an incoming req see
system.mem_ctrls.wrQLenPdf::12                      0                       # What write queue length does an incoming req see
system.mem_ctrls.wrQLenPdf::13                      0                       # What write queue length does an incoming req see
system.mem_ctrls.wrQLenPdf::14                      0                       # What write queue length does an incoming req see
system.mem_ctrls.wrQLenPdf::15                      0                       # What write queue length does an incoming req see
system.mem_ctrls.wrQLenPdf::16                      0                       # What write queue length does an incoming req see
system.mem_ctrls.wrQLenPdf::17                      0                       # What write queue length does an incoming req see
system.mem_ctrls.wrQLenPdf::18                      0                       # What write queue length does an incoming req see
system.mem_ctrls.wrQLenPdf::19                      0                       # What write queue length does an incoming req see
system.mem_ctrls.wrQLenPdf::20                      0                       # What write queue length does an incoming req see
system.mem_ctrls.wrQLenPdf::21                      0                       # What write queue length does an incoming req see
system.mem_ctrls.wrQLenPdf::22                      0                       # What write queue length does an incoming req see
system.mem_ctrls.wrQLenPdf::23                      0                       # What write queue length does an incoming req see
system.mem_ctrls.wrQLenPdf::24                      0                       # What write queue length does an incoming req see
system.mem_ctrls.wrQLenPdf::25                      0                       # What write queue length does an incoming req see
system.mem_ctrls.wrQLenPdf::26                      0                       # What write queue length does an incoming req see
system.mem_ctrls.wrQLenPdf::27                      0                       # What write queue length does an incoming req see
system.mem_ctrls.wrQLenPdf::28                      0                       # What write queue length does an incoming req see
system.mem_ctrls.wrQLenPdf::29                      0                       # What write queue length does an incoming req see
system.mem_ctrls.wrQLenPdf::30                      0                       # What write queue length does an incoming req see
system.mem_ctrls.wrQLenPdf::31                      0                       # What write queue length does an incoming req see
system.mem_ctrls.wrQLenPdf::32                      0                       # What write queue length does an incoming req see
system.mem_ctrls.wrQLenPdf::33                      0                       # What write queue length does an incoming req see
system.mem_ctrls.wrQLenPdf::34                      0                       # What write queue length does an incoming req see
system.mem_ctrls.wrQLenPdf::35                      0                       # What write queue length does an incoming req see
system.mem_ctrls.wrQLenPdf::36                      0                       # What write queue length does an incoming req see
system.mem_ctrls.wrQLenPdf::37                      0                       # What write queue length does an incoming req see
system.mem_ctrls.wrQLenPdf::38                      0                       # What write queue length does an incoming req see
system.mem_ctrls.wrQLenPdf::39                      0                       # What write queue length does an incoming req see
system.mem_ctrls.wrQLenPdf::40                      0                       # What write queue length does an incoming req see
system.mem_ctrls.wrQLenPdf::41                      0                       # What write queue length does an incoming req see
system.mem_ctrls.wrQLenPdf::42                      0                       # What write queue length does an incoming req see
system.mem_ctrls.wrQLenPdf::43                      0                       # What write queue length does an incoming req see
system.mem_ctrls.wrQLenPdf::44                      0                       # What write queue length does an incoming req see
system.mem_ctrls.wrQLenPdf::45                      0                       # What write queue length does an incoming req see
system.mem_ctrls.wrQLenPdf::46                      0                       # What write queue length does an incoming req see
system.mem_ctrls.wrQLenPdf::47                      0                       # What write queue length does an incoming req see
system.mem_ctrls.wrQLenPdf::48                      0                       # What write queue length does an incoming req see
system.mem_ctrls.wrQLenPdf::49                      0                       # What write queue length does an incoming req see
system.mem_ctrls.wrQLenPdf::50                      0                       # What write queue length does an incoming req see
system.mem_ctrls.wrQLenPdf::51                      0                       # What write queue length does an incoming req see
system.mem_ctrls.wrQLenPdf::52                      0                       # What write queue length does an incoming req see
system.mem_ctrls.wrQLenPdf::53                      0                       # What write queue length does an incoming req see
system.mem_ctrls.wrQLenPdf::54                      0                       # What write queue length does an incoming req see
system.mem_ctrls.wrQLenPdf::55                      0                       # What write queue length does an incoming req see
system.mem_ctrls.wrQLenPdf::56                      0                       # What write queue length does an incoming req see
system.mem_ctrls.wrQLenPdf::57                      0                       # What write queue length does an incoming req see
system.mem_ctrls.wrQLenPdf::58                      0                       # What write queue length does an incoming req see
system.mem_ctrls.wrQLenPdf::59                      0                       # What write queue length does an incoming req see
system.mem_ctrls.wrQLenPdf::60                      0                       # What write queue length does an incoming req see
system.mem_ctrls.wrQLenPdf::61                      0                       # What write queue length does an incoming req see
system.mem_ctrls.wrQLenPdf::62                      0                       # What write queue length does an incoming req see
system.mem_ctrls.wrQLenPdf::63                      0                       # What write queue length does an incoming req see
system.mem_ctrls.bytesPerActivate::samples          208                       # Bytes accessed per row activation
system.mem_ctrls.bytesPerActivate::mean    299.076923                       # Bytes accessed per row activation
system.mem_ctrls.bytesPerActivate::gmean   186.113467                       # Bytes accessed per row activation
system.mem_ctrls.bytesPerActivate::stdev   303.848033                       # Bytes accessed per row activation
system.mem_ctrls.bytesPerActivate::0-127           71     34.13%     34.13% # Bytes accessed per row activation
system.mem_ctrls.bytesPerActivate::128-255           55     26.44%     60.58% # Bytes accessed per row activation
system.mem_ctrls.bytesPerActivate::256-383           19      9.13%     69.71% # Bytes accessed per row activation
system.mem_ctrls.bytesPerActivate::384-511           22     10.58%     80.29% # Bytes accessed per row activation
system.mem_ctrls.bytesPerActivate::512-639           11      5.29%     85.58% # Bytes accessed per row activation
system.mem_ctrls.bytesPerActivate::640-767            4      1.92%     87.50% # Bytes accessed per row activation
system.mem_ctrls.bytesPerActivate::768-895            3      1.44%     88.94% # Bytes accessed per row activation
system.mem_ctrls.bytesPerActivate::896-1023            3      1.44%     90.38% # Bytes accessed per row activation
system.mem_ctrls.bytesPerActivate::1024-1151           20      9.62%    100.00% # Bytes accessed per row activation
system.mem_ctrls.bytesPerActivate::total          208                       # Bytes accessed per row activation
system.mem_ctrls.masterReadBytes::.cpu.inst        45632                       # Per-master bytes read from memory
system.mem_ctrls.masterReadBytes::.cpu.data        17408                       # Per-master bytes read from memory
system.mem_ctrls.masterReadRate::.cpu.inst 3078794.904672698118                       # Per-master bytes read from memory rate (Bytes/sec)
system.mem_ctrls.masterReadRate::.cpu.data 1174519.234321141383                       # Per-master bytes read from memory rate (Bytes/sec)
system.mem_ctrls.masterReadAccesses::.cpu.inst          713                       # Per-master read serviced memory accesses
system.mem_ctrls.masterReadAccesses::.cpu.data          272                       # Per-master read serviced memory accesses
system.mem_ctrls.masterReadTotalLat::.cpu.inst     23343250                       # Per-master read total memory access latency
system.mem_ctrls.masterReadTotalLat::.cpu.data     10293250                       # Per-master read total memory access latency
system.mem_ctrls.masterReadAvgLat::.cpu.inst     32739.48                       # Per-master read average memory access latency
system.mem_ctrls.masterReadAvgLat::.cpu.data     37842.83                       # Per-master read average memory access latency
system.mem_ctrls.totQLat                     15167750                       # Total ticks spent queuing
system.mem_ctrls.totMemAccLat                33636500                       # Total ticks spent from burst creation until serviced by the DRAM
system.mem_ctrls.totBusLat                    4925000                       # Total ticks spent in databus transfers
system.mem_ctrls.avgQLat                     15398.73                       # Average queueing delay per DRAM burst
system.mem_ctrls.avgBusLat                    5000.00                       # Average bus latency per DRAM burst
system.mem_ctrls.avgMemAccLat                34148.73                       # Average memory access latency per DRAM burst
system.mem_ctrls.avgRdBW                         4.25                       # Average DRAM read bandwidth in MiByte/s
system.mem_ctrls.avgWrBW                         0.00                       # Average achieved write bandwidth in MiByte/s
system.mem_ctrls.avgRdBWSys                      4.25                       # Average system read bandwidth in MiByte/s
system.mem_ctrls.avgWrBWSys                      0.00                       # Average system write bandwidth in MiByte/s
system.mem_ctrls.peakBW                      12800.00                       # Theoretical peak bandwidth in MiByte/s
system.mem_ctrls.busUtil                         0.03                       # Data bus utilization in percentage
system.mem_ctrls.busUtilRead                     0.03                       # Data bus utilization in percentage for reads
system.mem_ctrls.busUtilWrite                    0.00                       # Data bus utilization in percentage for writes
system.mem_ctrls.avgRdQLen                       1.00                       # Average read queue length when enqueuing
system.mem_ctrls.avgWrQLen                       0.00                       # Average write queue length when enqueuing
system.mem_ctrls.readRowHits                      769                       # Number of row buffer hits during reads
system.mem_ctrls.writeRowHits                       0                       # Number of row buffer hits during writes
system.mem_ctrls.readRowHitRate                 78.07                       # Row buffer hit rate for reads
system.mem_ctrls.writeRowHitRate                  nan                       # Row buffer hit rate for writes
system.mem_ctrls.avgGap                   15047028.93                       # Average gap between requests
system.mem_ctrls.pageHitRate                    78.07                       # Row buffer hit rate, read and write combined
system.mem_ctrls_0.actEnergy                   871080                       # Energy for activate commands per rank (pJ)
system.mem_ctrls_0.preEnergy                   444015                       # Energy for precharge commands per rank (pJ)
system.mem_ctrls_0.readEnergy                 3819900                       # Energy for read commands per rank (pJ)
system.mem_ctrls_0.writeEnergy                      0                       # Energy for write commands per rank (pJ)
system.mem_ctrls_0.refreshEnergy         4917120.000000                       # Energy for refresh commands per rank (pJ)
system.mem_ctrls_0.actBackEnergy              6660450                       # Energy for active background per rank (pJ)
system.mem_ctrls_0.preBackEnergy               209760                       # Energy for precharge background per rank (pJ)
system.mem_ctrls_0.actPowerDownEnergy        20251530                       # Energy for active power-down per rank (pJ)
system.mem_ctrls_0.prePowerDownEnergy         2920800                       # Energy for precharge power-down per rank (pJ)
system.mem_ctrls_0.selfRefreshEnergy       3541563540                       # Energy for self refresh per rank (pJ)
system.mem_ctrls_0.totalEnergy             3581658195                       # Total energy per rank (pJ)
system.mem_ctrls_0.averagePower            241.654782                       # Core power per rank (mW)
system.mem_ctrls_0.totalIdleTime          14806154000                       # Total Idle time Per DRAM Rank
system.mem_ctrls_0.memoryStateTime::IDLE       323500                       # Time in different power states
system.mem_ctrls_0.memoryStateTime::REF       2080000                       # Time in different power states
system.mem_ctrls_0.memoryStateTime::SREF  14754213500                       # Time in different power states
system.mem_ctrls_0.memoryStateTime::PRE_PDN      7606750                       # Time in different power states
system.mem_ctrls_0.memoryStateTime::ACT      12733000                       # Time in different power states
system.mem_ctrls_0.memoryStateTime::ACT_PDN     44426750                       # Time in different power states
system.mem_ctrls_1.actEnergy                   671160                       # Energy for activate commands per rank (pJ)
system.mem_ctrls_1.preEnergy                   345345                       # Energy for precharge commands per rank (pJ)
system.mem_ctrls_1.readEnergy                 3213000                       # Energy for read commands per rank (pJ)
system.mem_ctrls_1.writeEnergy                      0                       # Energy for write commands per rank (pJ)
system.mem_ctrls_1.refreshEnergy         4917120.000000                       # Energy for refresh commands per rank (pJ)
system.mem_ctrls_1.actBackEnergy              5657250                       # Energy for active background per rank (pJ)
system.mem_ctrls_1.preBackEnergy              1173600                       # Energy for precharge background per rank (pJ)
system.mem_ctrls_1.actPowerDownEnergy        17167830                       # Energy for active power-down per rank (pJ)
system.mem_ctrls_1.prePowerDownEnergy         4977600                       # Energy for precharge power-down per rank (pJ)
system.mem_ctrls_1.selfRefreshEnergy       3541826640                       # Energy for self refresh per rank (pJ)
system.mem_ctrls_1.totalEnergy             3579949545                       # Total energy per rank (pJ)
system.mem_ctrls_1.averagePower            241.539499                       # Core power per rank (mW)
system.mem_ctrls_1.totalIdleTime          14805935500                       # Total Idle time Per DRAM Rank
system.mem_ctrls_1.memoryStateTime::IDLE      2751000                       # Time in different power states
system.mem_ctrls_1.memoryStateTime::REF       2080000                       # Time in different power states
system.mem_ctrls_1.memoryStateTime::SREF  14755309500                       # Time in different power states
system.mem_ctrls_1.memoryStateTime::PRE_PDN     12962250                       # Time in different power states
system.mem_ctrls_1.memoryStateTime::ACT      10607000                       # Time in different power states
system.mem_ctrls_1.memoryStateTime::ACT_PDN     37673750                       # Time in different power states
system.pwrStateResidencyTicks::UNDEFINED  14821383500                       # Cumulative time (in ticks) in various power states
system.cpu.branchPred.lookups                15811540                       # Number of BP lookups
system.cpu.branchPred.condPredicted          15811540                       # Number of conditional branches predicted
system.cpu.branchPred.condIncorrect           1388653                       # Number of conditional branches incorrect
system.cpu.branchPred.BTBLookups             12706468                       # Number of BTB lookups
system.cpu.branchPred.BTBHits                       0                       # Number of BTB hits
system.cpu.branchPred.BTBCorrect                    0                       # Number of correct BTB predictions (this stat may not work properly.
system.cpu.branchPred.BTBHitPct              0.000000                       # BTB Hit Percentage
system.cpu.branchPred.usedRAS                  244014                       # Number of times the RAS was used to get a target.
system.cpu.branchPred.RASInCorrect                 57                       # Number of incorrect RAS predictions.
system.cpu.branchPred.indirectLookups        12706468                       # Number of indirect predictor lookups.
system.cpu.branchPred.indirectHits           12125926                       # Number of indirect target hits.
system.cpu.branchPred.indirectMisses           580542                       # Number of indirect misses.
system.cpu.branchPredindirectMispredicted        95653                       # Number of mispredicted indirect branches.
system.cpu_voltage_domain.voltage                   1                       # Voltage in Volts
system.cpu_clk_domain.clock                       500                       # Clock period in ticks
system.cpu.dtb.walker.pwrStateResidencyTicks::UNDEFINED  14821383500                       # Cumulative time (in ticks) in various power states
system.cpu.dtb.rdAccesses                     9873553                       # TLB accesses on read requests
system.cpu.dtb.wrAccesses                     3903753                       # TLB accesses on write requests
system.cpu.dtb.rdMisses                           130                       # TLB misses on read requests
system.cpu.dtb.wrMisses                            51                       # TLB misses on write requests
system.cpu.apic_clk_domain.clock                 8000                       # Clock period in ticks
system.cpu.interrupts.pwrStateResidencyTicks::UNDEFINED  14821383500                       # Cumulative time (in ticks) in various power states
system.cpu.itb.walker.pwrStateResidencyTicks::UNDEFINED  14821383500                       # Cumulative time (in ticks) in various power states
system.cpu.itb.rdAccesses                           0                       # TLB accesses on read requests
system.cpu.itb.wrAccesses                     2315867                       # TLB accesses on write requests
system.cpu.itb.rdMisses                             0                       # TLB misses on read requests
system.cpu.itb.wrMisses                           138                       # TLB misses on write requests
system.cpu.workload.numSyscalls                    12                       # Number of system calls
system.cpu.pwrStateResidencyTicks::ON     14821383500                       # Cumulative time (in ticks) in various power states
system.cpu.numCycles                         29642768                       # number of cpu cycles simulated
system.cpu.numWorkItemsStarted                      0                       # number of work items this cpu started
system.cpu.numWorkItemsCompleted                    0                       # number of work items this cpu completed
system.cpu.fetch.icacheStallCycles            2508051                       # Number of cycles fetch is stalled on an Icache miss
system.cpu.fetch.Insts                       68397222                       # Number of instructions fetch has processed
system.cpu.fetch.Branches                    15811540                       # Number of branches that fetch encountered
system.cpu.fetch.predictedBranches           12369940                       # Number of branches that fetch has predicted taken
system.cpu.fetch.Cycles                      25694382                       # Number of cycles fetch has run and was not squashing or blocked
system.cpu.fetch.SquashCycles                 2777470                       # Number of cycles fetch has spent squashing
system.cpu.fetch.MiscStallCycles                  121                       # Number of cycles fetch has spent waiting on interrupts, or bad addresses, or out of MSHRs
system.cpu.fetch.PendingTrapStallCycles           519                       # Number of stall cycles due to pending traps
system.cpu.fetch.PendingQuiesceStallCycles           12                       # Number of stall cycles due to pending quiesce instructions
system.cpu.fetch.IcacheWaitRetryStallCycles          167                       # Number of stall cycles due to full MSHR
system.cpu.fetch.CacheLines                   2315779                       # Number of cache lines fetched
system.cpu.fetch.IcacheSquashes                 29560                       # Number of outstanding Icache misses that were squashed
system.cpu.fetch.rateDist::samples           29591987                       # Number of instructions fetched each cycle (Total)
system.cpu.fetch.rateDist::mean              5.210215                       # Number of instructions fetched each cycle (Total)
system.cpu.fetch.rateDist::stdev             2.930358                       # Number of instructions fetched each cycle (Total)
system.cpu.fetch.rateDist::underflows               0      0.00%      0.00% # Number of instructions fetched each cycle (Total)
system.cpu.fetch.rateDist::0                  5334114     18.03%     18.03% # Number of instructions fetched each cycle (Total)
system.cpu.fetch.rateDist::1                   493243      1.67%     19.69% # Number of instructions fetched each cycle (Total)
system.cpu.fetch.rateDist::2                  1047294      3.54%     23.23% # Number of instructions fetched each cycle (Total)
system.cpu.fetch.rateDist::3                   199127      0.67%     23.90% # Number of instructions fetched each cycle (Total)
system.cpu.fetch.rateDist::4                   160161      0.54%     24.45% # Number of instructions fetched each cycle (Total)
system.cpu.fetch.rateDist::5                  5760187     19.47%     43.91% # Number of instructions fetched each cycle (Total)
system.cpu.fetch.rateDist::6                  5275823     17.83%     61.74% # Number of instructions fetched each cycle (Total)
system.cpu.fetch.rateDist::7                   677432      2.29%     64.03% # Number of instructions fetched each cycle (Total)
system.cpu.fetch.rateDist::8                 10644606     35.97%    100.00% # Number of instructions fetched each cycle (Total)
system.cpu.fetch.rateDist::overflows                0      0.00%    100.00% # Number of instructions fetched each cycle (Total)
system.cpu.fetch.rateDist::min_value                0                       # Number of instructions fetched each cycle (Total)
system.cpu.fetch.rateDist::max_value                8                       # Number of instructions fetched each cycle (Total)
system.cpu.fetch.rateDist::total             29591987                       # Number of instructions fetched each cycle (Total)
system.cpu.fetch.branchRate                  0.533403                       # Number of branch fetches per cycle
system.cpu.fetch.rate                        2.307383                       # Number of inst fetches per cycle
system.cpu.decode.IdleCycles                  3135856                       # Number of cycles decode is idle
system.cpu.decode.BlockedCycles               6496500                       # Number of cycles decode is blocked
system.cpu.decode.RunCycles                  16360087                       # Number of cycles decode is running
system.cpu.decode.UnblockCycles               2210809                       # Number of cycles decode is unblocking
system.cpu.decode.SquashCycles                1388735                       # Number of cycles decode is squashing
system.cpu.decode.DecodedInsts              138145849                       # Number of instructions handled by decode
system.cpu.rename.SquashCycles                1388735                       # Number of cycles rename is squashing
system.cpu.rename.IdleCycles                  4384485                       # Number of cycles rename is idle
system.cpu.rename.BlockCycles                 6484724                       # Number of cycles rename is blocking
system.cpu.rename.serializeStallCycles           1586                       # count of cycles rename stalled for serializing inst
system.cpu.rename.RunCycles                  16208418                       # Number of cycles rename is running
system.cpu.rename.UnblockCycles               1124039                       # Number of cycles rename is unblocking
system.cpu.rename.RenamedInsts              129119562                       # Number of instructions processed by rename
system.cpu.rename.ROBFullEvents                    23                       # Number of times rename has blocked due to ROB full
system.cpu.rename.IQFullEvents                     70                       # Number of times rename has blocked due to IQ full
system.cpu.rename.SQFullEvents                  10738                       # Number of times rename has blocked due to SQ full
system.cpu.rename.RenamedOperands           177990177                       # Number of destination operands rename has renamed
system.cpu.rename.RenameLookups             265082766                       # Number of register rename lookups that rename has made
system.cpu.rename.int_rename_lookups        153840279                       # Number of integer rename lookups
system.cpu.rename.fp_rename_lookups              1395                       # Number of floating rename lookups
system.cpu.rename.CommittedMaps              68952348                       # Number of HB maps that are committed
system.cpu.rename.UndoneMaps                109037829                       # Number of HB maps that are undone due to squashing
system.cpu.rename.serializingInsts                 37                       # count of serializing insts renamed
system.cpu.rename.tempSerializingInsts             32                       # count of temporary serializing insts renamed
system.cpu.rename.skidInsts                   8242293                       # count of insts added to the skid buffer
system.cpu.memDep0.insertedLoads             12612693                       # Number of loads inserted to the mem dependence unit.
system.cpu.memDep0.insertedStores             5270557                       # Number of stores inserted to the mem dependence unit.
system.cpu.memDep0.conflictingLoads             26047                       # Number of conflicting loads.
system.cpu.memDep0.conflictingStores              110                       # Number of conflicting stores.
system.cpu.iq.iqInstsAdded                  109796419                       # Number of instructions added to the IQ (excludes non-spec)
system.cpu.iq.iqNonSpecInstsAdded                 192                       # Number of non-speculative instructions added to the IQ
system.cpu.iq.iqInstsIssued                  90727842                       # Number of instructions issued
system.cpu.iq.iqSquashedInstsIssued           3632735                       # Number of squashed instructions issued
system.cpu.iq.iqSquashedInstsExamined        57945791                       # Number of squashed instructions iterated over during squash; mainly for profiling
system.cpu.iq.iqSquashedOperandsExamined     69591290                       # Number of squashed operands that are examined and possibly removed from graph
system.cpu.iq.iqSquashedNonSpecRemoved            180                       # Number of squashed non-spec instructions that were removed
system.cpu.iq.issued_per_cycle::samples      29591987                       # Number of insts issued each cycle
system.cpu.iq.issued_per_cycle::mean         3.065960                       # Number of insts issued each cycle
system.cpu.iq.issued_per_cycle::stdev        3.089833                       # Number of insts issued each cycle
system.cpu.iq.issued_per_cycle::underflows            0      0.00%      0.00% # Number of insts issued each cycle
system.cpu.iq.issued_per_cycle::0            13172299     44.51%     44.51% # Number of insts issued each cycle
system.cpu.iq.issued_per_cycle::1              771337      2.61%     47.12% # Number of insts issued each cycle
system.cpu.iq.issued_per_cycle::2              809296      2.73%     49.85% # Number of insts issued each cycle
system.cpu.iq.issued_per_cycle::3              959893      3.24%     53.10% # Number of insts issued each cycle
system.cpu.iq.issued_per_cycle::4             2055981      6.95%     60.05% # Number of insts issued each cycle
system.cpu.iq.issued_per_cycle::5             1620099      5.47%     65.52% # Number of insts issued each cycle
system.cpu.iq.issued_per_cycle::6             4502149     15.21%     80.73% # Number of insts issued each cycle
system.cpu.iq.issued_per_cycle::7             3486543     11.78%     92.52% # Number of insts issued each cycle
system.cpu.iq.issued_per_cycle::8             2214390      7.48%    100.00% # Number of insts issued each cycle
system.cpu.iq.issued_per_cycle::overflows            0      0.00%    100.00% # Number of insts issued each cycle
system.cpu.iq.issued_per_cycle::min_value            0                       # Number of insts issued each cycle
system.cpu.iq.issued_per_cycle::max_value            8                       # Number of insts issued each cycle
system.cpu.iq.issued_per_cycle::total        29591987                       # Number of insts issued each cycle
system.cpu.iq.fu_full::No_OpClass                   0      0.00%      0.00% # attempts to use FU when none available
system.cpu.iq.fu_full::IntAlu                 6303932     94.95%     94.95% # attempts to use FU when none available
system.cpu.iq.fu_full::IntMult                      0      0.00%     94.95% # attempts to use FU when none available
system.cpu.iq.fu_full::IntDiv                       0      0.00%     94.95% # attempts to use FU when none available
system.cpu.iq.fu_full::FloatAdd                     0      0.00%     94.95% # attempts to use FU when none available
system.cpu.iq.fu_full::FloatCmp                     0      0.00%     94.95% # attempts to use FU when none available
system.cpu.iq.fu_full::FloatCvt                     0      0.00%     94.95% # attempts to use FU when none available
system.cpu.iq.fu_full::FloatMult                    0      0.00%     94.95% # attempts to use FU when none available
system.cpu.iq.fu_full::FloatMultAcc                 0      0.00%     94.95% # attempts to use FU when none available
system.cpu.iq.fu_full::FloatDiv                     0      0.00%     94.95% # attempts to use FU when none available
system.cpu.iq.fu_full::FloatMisc                    0      0.00%     94.95% # attempts to use FU when none available
system.cpu.iq.fu_full::FloatSqrt                    0      0.00%     94.95% # attempts to use FU when none available
system.cpu.iq.fu_full::SimdAdd                      0      0.00%     94.95% # attempts to use FU when none available
system.cpu.iq.fu_full::SimdAddAcc                   0      0.00%     94.95% # attempts to use FU when none available
system.cpu.iq.fu_full::SimdAlu                      8      0.00%     94.95% # attempts to use FU when none available
system.cpu.iq.fu_full::SimdCmp                      0      0.00%     94.95% # attempts to use FU when none available
system.cpu.iq.fu_full::SimdCvt                      1      0.00%     94.95% # attempts to use FU when none available
system.cpu.iq.fu_full::SimdMisc                     1      0.00%     94.95% # attempts to use FU when none available
system.cpu.iq.fu_full::SimdMult                     0      0.00%     94.95% # attempts to use FU when none available
system.cpu.iq.fu_full::SimdMultAcc                  0      0.00%     94.95% # attempts to use FU when none available
system.cpu.iq.fu_full::SimdShift                    0      0.00%     94.95% # attempts to use FU when none available
system.cpu.iq.fu_full::SimdShiftAcc                 0      0.00%     94.95% # attempts to use FU when none available
system.cpu.iq.fu_full::SimdSqrt                     0      0.00%     94.95% # attempts to use FU when none available
system.cpu.iq.fu_full::SimdFloatAdd                 0      0.00%     94.95% # attempts to use FU when none available
system.cpu.iq.fu_full::SimdFloatAlu                 0      0.00%     94.95% # attempts to use FU when none available
system.cpu.iq.fu_full::SimdFloatCmp                 0      0.00%     94.95% # attempts to use FU when none available
system.cpu.iq.fu_full::SimdFloatCvt                 0      0.00%     94.95% # attempts to use FU when none available
system.cpu.iq.fu_full::SimdFloatDiv                 0      0.00%     94.95% # attempts to use FU when none available
system.cpu.iq.fu_full::SimdFloatMisc                0      0.00%     94.95% # attempts to use FU when none available
system.cpu.iq.fu_full::SimdFloatMult                0      0.00%     94.95% # attempts to use FU when none available
system.cpu.iq.fu_full::SimdFloatMultAcc             0      0.00%     94.95% # attempts to use FU when none available
system.cpu.iq.fu_full::SimdFloatSqrt                0      0.00%     94.95% # attempts to use FU when none available
system.cpu.iq.fu_full::SimdAes                      0      0.00%     94.95% # attempts to use FU when none available
system.cpu.iq.fu_full::SimdAesMix                   0      0.00%     94.95% # attempts to use FU when none available
system.cpu.iq.fu_full::SimdSha1Hash                 0      0.00%     94.95% # attempts to use FU when none available
system.cpu.iq.fu_full::SimdSha1Hash2                0      0.00%     94.95% # attempts to use FU when none available
system.cpu.iq.fu_full::SimdSha256Hash               0      0.00%     94.95% # attempts to use FU when none available
system.cpu.iq.fu_full::SimdSha256Hash2              0      0.00%     94.95% # attempts to use FU when none available
system.cpu.iq.fu_full::SimdShaSigma2                0      0.00%     94.95% # attempts to use FU when none available
system.cpu.iq.fu_full::SimdShaSigma3                0      0.00%     94.95% # attempts to use FU when none available
system.cpu.iq.fu_full::MemRead                     24      0.00%     94.95% # attempts to use FU when none available
system.cpu.iq.fu_full::MemWrite                335155      5.05%    100.00% # attempts to use FU when none available
system.cpu.iq.fu_full::FloatMemRead                 0      0.00%    100.00% # attempts to use FU when none available
system.cpu.iq.fu_full::FloatMemWrite               30      0.00%    100.00% # attempts to use FU when none available
system.cpu.iq.fu_full::IprAccess                    0      0.00%    100.00% # attempts to use FU when none available
system.cpu.iq.fu_full::InstPrefetch                 0      0.00%    100.00% # attempts to use FU when none available
system.cpu.iq.FU_type_0::No_OpClass             21753      0.02%      0.02% # Type of FU issued
system.cpu.iq.FU_type_0::IntAlu              75644908     83.38%     83.40% # Type of FU issued
system.cpu.iq.FU_type_0::IntMult                   20      0.00%     83.40% # Type of FU issued
system.cpu.iq.FU_type_0::IntDiv                    46      0.00%     83.40% # Type of FU issued
system.cpu.iq.FU_type_0::FloatAdd                  20      0.00%     83.40% # Type of FU issued
system.cpu.iq.FU_type_0::FloatCmp                   0      0.00%     83.40% # Type of FU issued
system.cpu.iq.FU_type_0::FloatCvt                   0      0.00%     83.40% # Type of FU issued
system.cpu.iq.FU_type_0::FloatMult                  0      0.00%     83.40% # Type of FU issued
system.cpu.iq.FU_type_0::FloatMultAcc               0      0.00%     83.40% # Type of FU issued
system.cpu.iq.FU_type_0::FloatDiv                   0      0.00%     83.40% # Type of FU issued
system.cpu.iq.FU_type_0::FloatMisc                  0      0.00%     83.40% # Type of FU issued
system.cpu.iq.FU_type_0::FloatSqrt                  0      0.00%     83.40% # Type of FU issued
system.cpu.iq.FU_type_0::SimdAdd                    0      0.00%     83.40% # Type of FU issued
system.cpu.iq.FU_type_0::SimdAddAcc                 0      0.00%     83.40% # Type of FU issued
system.cpu.iq.FU_type_0::SimdAlu                  112      0.00%     83.40% # Type of FU issued
system.cpu.iq.FU_type_0::SimdCmp                    0      0.00%     83.40% # Type of FU issued
system.cpu.iq.FU_type_0::SimdCvt                   78      0.00%     83.40% # Type of FU issued
system.cpu.iq.FU_type_0::SimdMisc                 207      0.00%     83.40% # Type of FU issued
system.cpu.iq.FU_type_0::SimdMult                   0      0.00%     83.40% # Type of FU issued
system.cpu.iq.FU_type_0::SimdMultAcc                0      0.00%     83.40% # Type of FU issued
system.cpu.iq.FU_type_0::SimdShift                  0      0.00%     83.40% # Type of FU issued
system.cpu.iq.FU_type_0::SimdShiftAcc               0      0.00%     83.40% # Type of FU issued
system.cpu.iq.FU_type_0::SimdSqrt                   0      0.00%     83.40% # Type of FU issued
system.cpu.iq.FU_type_0::SimdFloatAdd               0      0.00%     83.40% # Type of FU issued
system.cpu.iq.FU_type_0::SimdFloatAlu               0      0.00%     83.40% # Type of FU issued
system.cpu.iq.FU_type_0::SimdFloatCmp               0      0.00%     83.40% # Type of FU issued
system.cpu.iq.FU_type_0::SimdFloatCvt               0      0.00%     83.40% # Type of FU issued
system.cpu.iq.FU_type_0::SimdFloatDiv               0      0.00%     83.40% # Type of FU issued
system.cpu.iq.FU_type_0::SimdFloatMisc              0      0.00%     83.40% # Type of FU issued
system.cpu.iq.FU_type_0::SimdFloatMult              0      0.00%     83.40% # Type of FU issued
system.cpu.iq.FU_type_0::SimdFloatMultAcc            0      0.00%     83.40% # Type of FU issued
system.cpu.iq.FU_type_0::SimdFloatSqrt              0      0.00%     83.40% # Type of FU issued
system.cpu.iq.FU_type_0::SimdAes                    0      0.00%     83.40% # Type of FU issued
system.cpu.iq.FU_type_0::SimdAesMix                 0      0.00%     83.40% # Type of FU issued
system.cpu.iq.FU_type_0::SimdSha1Hash               0      0.00%     83.40% # Type of FU issued
system.cpu.iq.FU_type_0::SimdSha1Hash2              0      0.00%     83.40% # Type of FU issued
system.cpu.iq.FU_type_0::SimdSha256Hash             0      0.00%     83.40% # Type of FU issued
system.cpu.iq.FU_type_0::SimdSha256Hash2            0      0.00%     83.40% # Type of FU issued
system.cpu.iq.FU_type_0::SimdShaSigma2              0      0.00%     83.40% # Type of FU issued
system.cpu.iq.FU_type_0::SimdShaSigma3              0      0.00%     83.40% # Type of FU issued
system.cpu.iq.FU_type_0::MemRead             10857031     11.97%     95.37% # Type of FU issued
system.cpu.iq.FU_type_0::MemWrite             4203363      4.63%    100.00% # Type of FU issued
system.cpu.iq.FU_type_0::FloatMemRead              66      0.00%    100.00% # Type of FU issued
system.cpu.iq.FU_type_0::FloatMemWrite            238      0.00%    100.00% # Type of FU issued
system.cpu.iq.FU_type_0::IprAccess                  0      0.00%    100.00% # Type of FU issued
system.cpu.iq.FU_type_0::InstPrefetch               0      0.00%    100.00% # Type of FU issued
system.cpu.iq.FU_type_0::total               90727842                       # Type of FU issued
system.cpu.iq.rate                           3.060707                       # Inst issue rate
system.cpu.iq.fu_busy_cnt                     6639151                       # FU busy when requested
system.cpu.iq.fu_busy_rate                   0.073177                       # FU busy rate (busy events/executed inst)
system.cpu.iq.int_inst_queue_reads          221317970                       # Number of integer instruction queue reads
system.cpu.iq.int_inst_queue_writes         167741226                       # Number of integer instruction queue writes
system.cpu.iq.int_inst_queue_wakeup_accesses     85479580                       # Number of integer instruction queue wakeup accesses
system.cpu.iq.fp_inst_queue_reads                1587                       # Number of floating instruction queue reads
system.cpu.iq.fp_inst_queue_writes               1216                       # Number of floating instruction queue writes
system.cpu.iq.fp_inst_queue_wakeup_accesses          716                       # Number of floating instruction queue wakeup accesses
system.cpu.iq.vec_inst_queue_reads                  0                       # Number of vector instruction queue reads
system.cpu.iq.vec_inst_queue_writes                 0                       # Number of vector instruction queue writes
system.cpu.iq.vec_inst_queue_wakeup_accesses            0                       # Number of vector instruction queue wakeup accesses
system.cpu.iq.int_alu_accesses               97344441                       # Number of integer alu accesses
system.cpu.iq.fp_alu_accesses                     799                       # Number of floating point alu accesses
system.cpu.iq.vec_alu_accesses                      0                       # Number of vector alu accesses
system.cpu.iew.lsq.thread0.forwLoads           116996                       # Number of loads that had data forwarded from stores
system.cpu.iew.lsq.thread0.invAddrLoads             0                       # Number of loads ignored due to an invalid address
system.cpu.iew.lsq.thread0.squashedLoads      6459734                       # Number of loads squashed
system.cpu.iew.lsq.thread0.ignoredResponses            3                       # Number of memory responses ignored because the instruction is squashed
system.cpu.iew.lsq.thread0.memOrderViolation           43                       # Number of memory ordering violations
system.cpu.iew.lsq.thread0.squashedStores      2764358                       # Number of stores squashed
system.cpu.iew.lsq.thread0.invAddrSwpfs             0                       # Number of software prefetches ignored due to an invalid address
system.cpu.iew.lsq.thread0.blockedLoads             0                       # Number of blocked loads due to partial load-store forwarding
system.cpu.iew.lsq.thread0.rescheduledLoads            1                       # Number of loads that were rescheduled
system.cpu.iew.lsq.thread0.cacheBlocked             1                       # Number of times an access to memory failed due to the cache being blocked
system.cpu.iew.iewIdleCycles                        0                       # Number of cycles IEW is idle
system.cpu.iew.iewSquashCycles                1388735                       # Number of cycles IEW is squashing
system.cpu.iew.iewBlockCycles                 6482414                       # Number of cycles IEW is blocking
system.cpu.iew.iewUnblockCycles                  1649                       # Number of cycles IEW is unblocking
system.cpu.iew.iewDispatchedInsts           109796611                       # Number of instructions dispatched to IQ
system.cpu.iew.iewDispSquashedInsts                28                       # Number of squashed instructions skipped by dispatch
system.cpu.iew.iewDispLoadInsts              12612693                       # Number of dispatched load instructions
system.cpu.iew.iewDispStoreInsts              5270557                       # Number of dispatched store instructions
system.cpu.iew.iewDispNonSpecInsts                 87                       # Number of dispatched non-speculative instructions
system.cpu.iew.iewIQFullEvents                     10                       # Number of times the IQ has become full, causing a stall
system.cpu.iew.iewLSQFullEvents                  1636                       # Number of times the LSQ has become full, causing a stall
system.cpu.iew.memOrderViolationEvents             43                       # Number of memory order violations
system.cpu.iew.predictedTakenIncorrect        1114935                       # Number of branches that were predicted taken incorrectly
system.cpu.iew.predictedNotTakenIncorrect       667341                       # Number of branches that were predicted not taken incorrectly
system.cpu.iew.branchMispredicts              1782276                       # Number of branch mispredicts detected at execute
system.cpu.iew.iewExecutedInsts              87292424                       # Number of executed instructions
system.cpu.iew.iewExecLoadInsts               9873541                       # Number of load instructions executed
system.cpu.iew.iewExecSquashedInsts           3435418                       # Number of squashed instructions skipped in execute
system.cpu.iew.exec_swp                             0                       # number of swp insts executed
system.cpu.iew.exec_nop                             0                       # number of nop insts executed
system.cpu.iew.exec_refs                     13777292                       # number of memory reference insts executed
system.cpu.iew.exec_branches                  6624123                       # Number of branches executed
system.cpu.iew.exec_stores                    3903751                       # Number of stores executed
system.cpu.iew.exec_rate                     2.944814                       # Inst execution rate
system.cpu.iew.wb_sent                       86299928                       # cumulative count of insts sent to commit
system.cpu.iew.wb_count                      85480296                       # cumulative count of insts written-back
system.cpu.iew.wb_producers                  65892483                       # num instructions producing a value
system.cpu.iew.wb_consumers                  80537970                       # num instructions consuming a value
system.cpu.iew.wb_rate                       2.883681                       # insts written-back per cycle
system.cpu.iew.wb_fanout                     0.818154                       # average fanout of values written-back
system.cpu.commit.commitSquashedInsts        57945795                       # The number of squashed insts skipped by commit
system.cpu.commit.commitNonSpecStalls              12                       # The number of times commit has been forced to stall to communicate backwards
system.cpu.commit.branchMispredicts           1388720                       # The number of times a branch was mispredicted
system.cpu.commit.committed_per_cycle::samples     21721233                       # Number of insts commited each cycle
system.cpu.commit.committed_per_cycle::mean     2.387103                       # Number of insts commited each cycle
system.cpu.commit.committed_per_cycle::stdev     3.029144                       # Number of insts commited each cycle
system.cpu.commit.committed_per_cycle::underflows            0      0.00%      0.00% # Number of insts commited each cycle
system.cpu.commit.committed_per_cycle::0     10215159     47.03%     47.03% # Number of insts commited each cycle
system.cpu.commit.committed_per_cycle::1      2423628     11.16%     58.19% # Number of insts commited each cycle
system.cpu.commit.committed_per_cycle::2      1150256      5.30%     63.48% # Number of insts commited each cycle
system.cpu.commit.committed_per_cycle::3      2151777      9.91%     73.39% # Number of insts commited each cycle
system.cpu.commit.committed_per_cycle::4       521041      2.40%     75.79% # Number of insts commited each cycle
system.cpu.commit.committed_per_cycle::5       492802      2.27%     78.06% # Number of insts commited each cycle
system.cpu.commit.committed_per_cycle::6       557013      2.56%     80.62% # Number of insts commited each cycle
system.cpu.commit.committed_per_cycle::7       895360      4.12%     84.74% # Number of insts commited each cycle
system.cpu.commit.committed_per_cycle::8      3314197     15.26%    100.00% # Number of insts commited each cycle
system.cpu.commit.committed_per_cycle::overflows            0      0.00%    100.00% # Number of insts commited each cycle
system.cpu.commit.committed_per_cycle::min_value            0                       # Number of insts commited each cycle
system.cpu.commit.committed_per_cycle::max_value            8                       # Number of insts commited each cycle
system.cpu.commit.committed_per_cycle::total     21721233                       # Number of insts commited each cycle
system.cpu.commit.committedInsts             23015444                       # Number of instructions committed
system.cpu.commit.committedOps               51850819                       # Number of ops (including micro ops) committed
system.cpu.commit.swp_count                         0                       # Number of s/w prefetches committed
system.cpu.commit.refs                        8659158                       # Number of memory references committed
system.cpu.commit.loads                       6152959                       # Number of loads committed
system.cpu.commit.membars                           0                       # Number of memory barriers committed
system.cpu.commit.branches                    5316080                       # Number of branches committed
system.cpu.commit.vec_insts                         0                       # Number of committed Vector instructions.
system.cpu.commit.fp_insts                        582                       # Number of committed floating point instructions.
system.cpu.commit.int_insts                  51686199                       # Number of committed integer instructions.
system.cpu.commit.function_calls               167086                       # Number of function calls committed.
system.cpu.commit.op_class_0::No_OpClass           70      0.00%      0.00% # Class of committed instruction
system.cpu.commit.op_class_0::IntAlu         43191188     83.30%     83.30% # Class of committed instruction
system.cpu.commit.op_class_0::IntMult              17      0.00%     83.30% # Class of committed instruction
system.cpu.commit.op_class_0::IntDiv               42      0.00%     83.30% # Class of committed instruction
system.cpu.commit.op_class_0::FloatAdd             14      0.00%     83.30% # Class of committed instruction
system.cpu.commit.op_class_0::FloatCmp              0      0.00%     83.30% # Class of committed instruction
system.cpu.commit.op_class_0::FloatCvt              0      0.00%     83.30% # Class of committed instruction
system.cpu.commit.op_class_0::FloatMult             0      0.00%     83.30% # Class of committed instruction
system.cpu.commit.op_class_0::FloatMultAcc            0      0.00%     83.30% # Class of committed instruction
system.cpu.commit.op_class_0::FloatDiv              0      0.00%     83.30% # Class of committed instruction
system.cpu.commit.op_class_0::FloatMisc             0      0.00%     83.30% # Class of committed instruction
system.cpu.commit.op_class_0::FloatSqrt             0      0.00%     83.30% # Class of committed instruction
system.cpu.commit.op_class_0::SimdAdd               0      0.00%     83.30% # Class of committed instruction
system.cpu.commit.op_class_0::SimdAddAcc            0      0.00%     83.30% # Class of committed instruction
system.cpu.commit.op_class_0::SimdAlu              94      0.00%     83.30% # Class of committed instruction
system.cpu.commit.op_class_0::SimdCmp               0      0.00%     83.30% # Class of committed instruction
system.cpu.commit.op_class_0::SimdCvt              74      0.00%     83.30% # Class of committed instruction
system.cpu.commit.op_class_0::SimdMisc            162      0.00%     83.30% # Class of committed instruction
system.cpu.commit.op_class_0::SimdMult              0      0.00%     83.30% # Class of committed instruction
system.cpu.commit.op_class_0::SimdMultAcc            0      0.00%     83.30% # Class of committed instruction
system.cpu.commit.op_class_0::SimdShift             0      0.00%     83.30% # Class of committed instruction
system.cpu.commit.op_class_0::SimdShiftAcc            0      0.00%     83.30% # Class of committed instruction
system.cpu.commit.op_class_0::SimdSqrt              0      0.00%     83.30% # Class of committed instruction
system.cpu.commit.op_class_0::SimdFloatAdd            0      0.00%     83.30% # Class of committed instruction
system.cpu.commit.op_class_0::SimdFloatAlu            0      0.00%     83.30% # Class of committed instruction
system.cpu.commit.op_class_0::SimdFloatCmp            0      0.00%     83.30% # Class of committed instruction
system.cpu.commit.op_class_0::SimdFloatCvt            0      0.00%     83.30% # Class of committed instruction
system.cpu.commit.op_class_0::SimdFloatDiv            0      0.00%     83.30% # Class of committed instruction
system.cpu.commit.op_class_0::SimdFloatMisc            0      0.00%     83.30% # Class of committed instruction
system.cpu.commit.op_class_0::SimdFloatMult            0      0.00%     83.30% # Class of committed instruction
system.cpu.commit.op_class_0::SimdFloatMultAcc            0      0.00%     83.30% # Class of committed instruction
system.cpu.commit.op_class_0::SimdFloatSqrt            0      0.00%     83.30% # Class of committed instruction
system.cpu.commit.op_class_0::SimdAes               0      0.00%     83.30% # Class of committed instruction
system.cpu.commit.op_class_0::SimdAesMix            0      0.00%     83.30% # Class of committed instruction
system.cpu.commit.op_class_0::SimdSha1Hash            0      0.00%     83.30% # Class of committed instruction
system.cpu.commit.op_class_0::SimdSha1Hash2            0      0.00%     83.30% # Class of committed instruction
system.cpu.commit.op_class_0::SimdSha256Hash            0      0.00%     83.30% # Class of committed instruction
system.cpu.commit.op_class_0::SimdSha256Hash2            0      0.00%     83.30% # Class of committed instruction
system.cpu.commit.op_class_0::SimdShaSigma2            0      0.00%     83.30% # Class of committed instruction
system.cpu.commit.op_class_0::SimdShaSigma3            0      0.00%     83.30% # Class of committed instruction
system.cpu.commit.op_class_0::MemRead         6152907     11.87%     95.17% # Class of committed instruction
system.cpu.commit.op_class_0::MemWrite        2506047      4.83%    100.00% # Class of committed instruction
system.cpu.commit.op_class_0::FloatMemRead           52      0.00%    100.00% # Class of committed instruction
system.cpu.commit.op_class_0::FloatMemWrite          152      0.00%    100.00% # Class of committed instruction
system.cpu.commit.op_class_0::IprAccess             0      0.00%    100.00% # Class of committed instruction
system.cpu.commit.op_class_0::InstPrefetch            0      0.00%    100.00% # Class of committed instruction
system.cpu.commit.op_class_0::total          51850819                       # Class of committed instruction
system.cpu.commit.bw_lim_events               3314197                       # number cycles where commit BW limit reached
system.cpu.rob.rob_reads                    128203650                       # The number of ROB reads
system.cpu.rob.rob_writes                   227538419                       # The number of ROB writes
system.cpu.timesIdled                             385                       # Number of times that the entire CPU went into an idle state and unscheduled itself
system.cpu.idleCycles                           50781                       # Total number of cycles that the CPU has spent unscheduled due to idling
system.cpu.committedInsts                    23015444                       # Number of Instructions Simulated
system.cpu.committedOps                      51850819                       # Number of Ops (including micro ops) Simulated
system.cpu.cpi                               1.287951                       # CPI: Cycles Per Instruction
system.cpu.cpi_total                         1.287951                       # CPI: Total CPI of All Threads
system.cpu.ipc                               0.776427                       # IPC: Instructions Per Cycle
system.cpu.ipc_total                         0.776427                       # IPC: Total IPC of All Threads
system.cpu.int_regfile_reads                 96679299                       # number of integer regfile reads
system.cpu.int_regfile_writes                75585824                       # number of integer regfile writes
system.cpu.fp_regfile_reads                      1058                       # number of floating regfile reads
system.cpu.fp_regfile_writes                      435                       # number of floating regfile writes
system.cpu.cc_regfile_reads                  29531194                       # number of cc regfile reads
system.cpu.cc_regfile_writes                 42762400                       # number of cc regfile writes
system.cpu.misc_regfile_reads                33828453                       # number of misc regfile reads
system.cpu.dcache.tags.pwrStateResidencyTicks::UNDEFINED  14821383500                       # Cumulative time (in ticks) in various power states
system.cpu.dcache.tags.tagsinuse           255.655670                       # Cycle average of tags in use
system.cpu.dcache.tags.total_refs            12262524                       # Total number of references to valid blocks.
system.cpu.dcache.tags.sampled_refs               275                       # Sample count of references to valid blocks.
system.cpu.dcache.tags.avg_refs          44590.996364                       # Average number of references to valid blocks.
system.cpu.dcache.tags.warmup_cycle            180500                       # Cycle when the warmup percentage was hit.
system.cpu.dcache.tags.occ_blocks::.cpu.data   255.655670                       # Average occupied blocks per requestor
system.cpu.dcache.tags.occ_percent::.cpu.data     0.249664                       # Average percentage of cache occupancy
system.cpu.dcache.tags.occ_percent::total     0.249664                       # Average percentage of cache occupancy
system.cpu.dcache.tags.occ_task_id_blocks::1024          274                       # Occupied blocks per task id
system.cpu.dcache.tags.age_task_id_blocks_1024::0           19                       # Occupied blocks per task id
system.cpu.dcache.tags.age_task_id_blocks_1024::4          255                       # Occupied blocks per task id
system.cpu.dcache.tags.occ_task_id_percent::1024     0.267578                       # Percentage of cache occupancy per task id
system.cpu.dcache.tags.tag_accesses          24525563                       # Number of tag accesses
system.cpu.dcache.tags.data_accesses         24525563                       # Number of data accesses
system.cpu.dcache.pwrStateResidencyTicks::UNDEFINED  14821383500                       # Cumulative time (in ticks) in various power states
system.cpu.dcache.ReadReq_hits::.cpu.data      9756203                       # number of ReadReq hits
system.cpu.dcache.ReadReq_hits::total         9756203                       # number of ReadReq hits
system.cpu.dcache.WriteReq_hits::.cpu.data      2506046                       # number of WriteReq hits
system.cpu.dcache.WriteReq_hits::total        2506046                       # number of WriteReq hits
system.cpu.dcache.demand_hits::.cpu.data     12262249                       # number of demand (read+write) hits
system.cpu.dcache.demand_hits::total         12262249                       # number of demand (read+write) hits
system.cpu.dcache.overall_hits::.cpu.data     12262249                       # number of overall hits
system.cpu.dcache.overall_hits::total        12262249                       # number of overall hits
system.cpu.dcache.ReadReq_misses::.cpu.data          242                       # number of ReadReq misses
system.cpu.dcache.ReadReq_misses::total           242                       # number of ReadReq misses
system.cpu.dcache.WriteReq_misses::.cpu.data          153                       # number of WriteReq misses
system.cpu.dcache.WriteReq_misses::total          153                       # number of WriteReq misses
system.cpu.dcache.demand_misses::.cpu.data          395                       # number of demand (read+write) misses
system.cpu.dcache.demand_misses::total            395                       # number of demand (read+write) misses
system.cpu.dcache.overall_misses::.cpu.data          395                       # number of overall misses
system.cpu.dcache.overall_misses::total           395                       # number of overall misses
system.cpu.dcache.ReadReq_miss_latency::.cpu.data     19432500                       # number of ReadReq miss cycles
system.cpu.dcache.ReadReq_miss_latency::total     19432500                       # number of ReadReq miss cycles
system.cpu.dcache.WriteReq_miss_latency::.cpu.data     13582500                       # number of WriteReq miss cycles
system.cpu.dcache.WriteReq_miss_latency::total     13582500                       # number of WriteReq miss cycles
system.cpu.dcache.demand_miss_latency::.cpu.data     33015000                       # number of demand (read+write) miss cycles
system.cpu.dcache.demand_miss_latency::total     33015000                       # number of demand (read+write) miss cycles
system.cpu.dcache.overall_miss_latency::.cpu.data     33015000                       # number of overall miss cycles
system.cpu.dcache.overall_miss_latency::total     33015000                       # number of overall miss cycles
system.cpu.dcache.ReadReq_accesses::.cpu.data      9756445                       # number of ReadReq accesses(hits+misses)
system.cpu.dcache.ReadReq_accesses::total      9756445                       # number of ReadReq accesses(hits+misses)
system.cpu.dcache.WriteReq_accesses::.cpu.data      2506199                       # number of WriteReq accesses(hits+misses)
system.cpu.dcache.WriteReq_accesses::total      2506199                       # number of WriteReq accesses(hits+misses)
system.cpu.dcache.demand_accesses::.cpu.data     12262644                       # number of demand (read+write) accesses
system.cpu.dcache.demand_accesses::total     12262644                       # number of demand (read+write) accesses
[...]
system.l2.ReadSharedReq_accesses::.cpu.data          123                       # number of ReadSharedReq accesses(hits+misses)
system.l2.ReadSharedReq_accesses::total           123                       # number of ReadSharedReq accesses(hits+misses)
system.l2.demand_accesses::.cpu.inst              762                       # number of demand (read+write) accesses
system.l2.demand_accesses::.cpu.data              275                       # number of demand (read+write) accesses
system.l2.demand_accesses::total                 1037                       # number of demand (read+write) accesses
system.l2.overall_accesses::.cpu.inst             762                       # number of overall (read+write) accesses
system.l2.overall_accesses::.cpu.data             275                       # number of overall (read+write) accesses
system.l2.overall_accesses::total                1037                       # number of overall (read+write) accesses
system.l2.ReadExReq_miss_rate::.cpu.data            1                       # miss rate for ReadExReq accesses
system.l2.ReadExReq_miss_rate::total                1                       # miss rate for ReadExReq accesses
system.l2.ReadCleanReq_miss_rate::.cpu.inst     0.937008                       # miss rate for ReadCleanReq accesses
system.l2.ReadCleanReq_miss_rate::total      0.937008                       # miss rate for ReadCleanReq accesses
system.l2.ReadSharedReq_miss_rate::.cpu.data     0.983740                       # miss rate for ReadSharedReq accesses
system.l2.ReadSharedReq_miss_rate::total     0.983740                       # miss rate for ReadSharedReq accesses
system.l2.demand_miss_rate::.cpu.inst        0.937008                       # miss rate for demand accesses
system.l2.demand_miss_rate::.cpu.data        0.992727                       # miss rate for demand accesses
system.l2.demand_miss_rate::total            0.951784                       # miss rate for demand accesses
system.l2.overall_miss_rate::.cpu.inst       0.937008                       # miss rate for overall accesses
system.l2.overall_miss_rate::.cpu.data       0.992727                       # miss rate for overall accesses
system.l2.overall_miss_rate::total           0.951784                       # miss rate for overall accesses
system.l2.ReadExReq_avg_miss_latency::.cpu.data 86332.236842                       # average ReadExReq miss latency
system.l2.ReadExReq_avg_miss_latency::total 86332.236842                       # average ReadExReq miss latency
system.l2.ReadCleanReq_avg_miss_latency::.cpu.inst 83646.358543                       # average ReadCleanReq miss latency
system.l2.ReadCleanReq_avg_miss_latency::total 83646.358543                       # average ReadCleanReq miss latency
system.l2.ReadSharedReq_avg_miss_latency::.cpu.data 91896.694215                       # average ReadSharedReq miss latency
system.l2.ReadSharedReq_avg_miss_latency::total 91896.694215                       # average ReadSharedReq miss latency
system.l2.demand_avg_miss_latency::.cpu.inst 83646.358543                       # average overall miss latency
system.l2.demand_avg_miss_latency::.cpu.data 88798.534799                       # average overall miss latency
system.l2.demand_avg_miss_latency::total 85071.428571                       # average overall miss latency
system.l2.overall_avg_miss_latency::.cpu.inst 83646.358543                       # average overall miss latency
system.l2.overall_avg_miss_latency::.cpu.data 88798.534799                       # average overall miss latency
system.l2.overall_avg_miss_latency::total 85071.428571                       # average overall miss latency
system.l2.blocked_cycles::no_mshrs                  0                       # number of cycles access was blocked
system.l2.blocked_cycles::no_targets                0                       # number of cycles access was blocked
system.l2.blocked::no_mshrs                         0                       # number of cycles access was blocked
system.l2.blocked::no_targets                       0                       # number of cycles access was blocked
system.l2.avg_blocked_cycles::no_mshrs            nan                       # average number of cycles each access was blocked
system.l2.avg_blocked_cycles::no_targets          nan                       # average number of cycles each access was blocked
system.l2.ReadSharedReq_mshr_hits::.cpu.data            1                       # number of ReadSharedReq MSHR hits
system.l2.ReadSharedReq_mshr_hits::total            1                       # number of ReadSharedReq MSHR hits
system.l2.demand_mshr_hits::.cpu.data               1                       # number of demand (read+write) MSHR hits
system.l2.demand_mshr_hits::total                   1                       # number of demand (read+write) MSHR hits
system.l2.overall_mshr_hits::.cpu.data              1                       # number of overall MSHR hits
system.l2.overall_mshr_hits::total                  1                       # number of overall MSHR hits
system.l2.ReadExReq_mshr_misses::.cpu.data          152                       # number of ReadExReq MSHR misses
system.l2.ReadExReq_mshr_misses::total            152                       # number of ReadExReq MSHR misses
system.l2.ReadCleanReq_mshr_misses::.cpu.inst          714                       # number of ReadCleanReq MSHR misses
system.l2.ReadCleanReq_mshr_misses::total          714                       # number of ReadCleanReq MSHR misses
system.l2.ReadSharedReq_mshr_misses::.cpu.data          120                       # number of ReadSharedReq MSHR misses
system.l2.ReadSharedReq_mshr_misses::total          120                       # number of ReadSharedReq MSHR misses
system.l2.demand_mshr_misses::.cpu.inst           714                       # number of demand (read+write) MSHR misses
system.l2.demand_mshr_misses::.cpu.data           272                       # number of demand (read+write) MSHR misses
system.l2.demand_mshr_misses::total               986                       # number of demand (read+write) MSHR misses
system.l2.overall_mshr_misses::.cpu.inst          714                       # number of overall MSHR misses
system.l2.overall_mshr_misses::.cpu.data          272                       # number of overall MSHR misses
system.l2.overall_mshr_misses::total              986                       # number of overall MSHR misses
system.l2.ReadExReq_mshr_miss_latency::.cpu.data     11602500                       # number of ReadExReq MSHR miss cycles
system.l2.ReadExReq_mshr_miss_latency::total     11602500                       # number of ReadExReq MSHR miss cycles
system.l2.ReadCleanReq_mshr_miss_latency::.cpu.inst     52603500                       # number of ReadCleanReq MSHR miss cycles
system.l2.ReadCleanReq_mshr_miss_latency::total     52603500                       # number of ReadCleanReq MSHR miss cycles
system.l2.ReadSharedReq_mshr_miss_latency::.cpu.data      9865000                       # number of ReadSharedReq MSHR miss cycles
system.l2.ReadSharedReq_mshr_miss_latency::total      9865000                       # number of ReadSharedReq MSHR miss cycles
system.l2.demand_mshr_miss_latency::.cpu.inst     52603500                       # number of demand (read+write) MSHR miss cycles
system.l2.demand_mshr_miss_latency::.cpu.data     21467500                       # number of demand (read+write) MSHR miss cycles
system.l2.demand_mshr_miss_latency::total     74071000                       # number of demand (read+write) MSHR miss cycles
system.l2.overall_mshr_miss_latency::.cpu.inst     52603500                       # number of overall MSHR miss cycles
system.l2.overall_mshr_miss_latency::.cpu.data     21467500                       # number of overall MSHR miss cycles
system.l2.overall_mshr_miss_latency::total     74071000                       # number of overall MSHR miss cycles
system.l2.ReadExReq_mshr_miss_rate::.cpu.data            1                       # mshr miss rate for ReadExReq accesses
system.l2.ReadExReq_mshr_miss_rate::total            1                       # mshr miss rate for ReadExReq accesses
system.l2.ReadCleanReq_mshr_miss_rate::.cpu.inst     0.937008                       # mshr miss rate for ReadCleanReq accesses
system.l2.ReadCleanReq_mshr_miss_rate::total     0.937008                       # mshr miss rate for ReadCleanReq accesses
system.l2.ReadSharedReq_mshr_miss_rate::.cpu.data     0.975610                       # mshr miss rate for ReadSharedReq accesses
system.l2.ReadSharedReq_mshr_miss_rate::total     0.975610                       # mshr miss rate for ReadSharedReq accesses
system.l2.demand_mshr_miss_rate::.cpu.inst     0.937008                       # mshr miss rate for demand accesses
system.l2.demand_mshr_miss_rate::.cpu.data     0.989091                       # mshr miss rate for demand accesses
system.l2.demand_mshr_miss_rate::total       0.950820                       # mshr miss rate for demand accesses
system.l2.overall_mshr_miss_rate::.cpu.inst     0.937008                       # mshr miss rate for overall accesses
system.l2.overall_mshr_miss_rate::.cpu.data     0.989091                       # mshr miss rate for overall accesses
system.l2.overall_mshr_miss_rate::total      0.950820                       # mshr miss rate for overall accesses
system.l2.ReadExReq_avg_mshr_miss_latency::.cpu.data 76332.236842                       # average ReadExReq mshr miss latency
system.l2.ReadExReq_avg_mshr_miss_latency::total 76332.236842                       # average ReadExReq mshr miss latency
system.l2.ReadCleanReq_avg_mshr_miss_latency::.cpu.inst 73674.369748                       # average ReadCleanReq mshr miss latency
system.l2.ReadCleanReq_avg_mshr_miss_latency::total 73674.369748                       # average ReadCleanReq mshr miss latency
system.l2.ReadSharedReq_avg_mshr_miss_latency::.cpu.data 82208.333333                       # average ReadSharedReq mshr miss latency
system.l2.ReadSharedReq_avg_mshr_miss_latency::total 82208.333333                       # average ReadSharedReq mshr miss latency
system.l2.demand_avg_mshr_miss_latency::.cpu.inst 73674.369748                       # average overall mshr miss latency
system.l2.demand_avg_mshr_miss_latency::.cpu.data 78924.632353                       # average overall mshr miss latency
system.l2.demand_avg_mshr_miss_latency::total 75122.718053                       # average overall mshr miss latency
system.l2.overall_avg_mshr_miss_latency::.cpu.inst 73674.369748                       # average overall mshr miss latency
system.l2.overall_avg_mshr_miss_latency::.cpu.data 78924.632353                       # average overall mshr miss latency
system.l2.overall_avg_mshr_miss_latency::total 75122.718053                       # average overall mshr miss latency
system.l2.replacements                              0                       # number of replacements
system.membus.snoop_filter.tot_requests           985                       # Total number of requests made to the snoop filter.
system.membus.snoop_filter.hit_single_requests            0                       # Number of requests hitting in the snoop filter with a single holder of the requested data.
system.membus.snoop_filter.hit_multi_requests            0                       # Number of requests hitting in the snoop filter with multiple (>1) holders of the requested data.
system.membus.snoop_filter.tot_snoops               0                       # Total number of snoops made to the snoop filter.
system.membus.snoop_filter.hit_single_snoops            0                       # Number of snoops hitting in the snoop filter with a single holder of the requested data.
system.membus.snoop_filter.hit_multi_snoops            0                       # Number of snoops hitting in the snoop filter with multiple (>1) holders of the requested data.
system.membus.pwrStateResidencyTicks::UNDEFINED  14821383500                       # Cumulative time (in ticks) in various power states
system.membus.trans_dist::ReadResp                832                       # Transaction distribution
system.membus.trans_dist::ReadExReq               152                       # Transaction distribution
system.membus.trans_dist::ReadExResp              152                       # Transaction distribution
system.membus.trans_dist::ReadSharedReq           833                       # Transaction distribution
system.membus.pkt_count_system.l2.mem_side::system.mem_ctrls.port         1969                       # Packet count per connected master and slave (bytes)
system.membus.pkt_count_system.l2.mem_side::total         1969                       # Packet count per connected master and slave (bytes)
system.membus.pkt_count::total                   1969                       # Packet count per connected master and slave (bytes)
system.membus.pkt_size_system.l2.mem_side::system.mem_ctrls.port        62976                       # Cumulative packet size per connected master and slave (bytes)
system.membus.pkt_size_system.l2.mem_side::total        62976                       # Cumulative packet size per connected master and slave (bytes)
system.membus.pkt_size::total                   62976                       # Cumulative packet size per connected master and slave (bytes)
system.membus.snoops                                0                       # Total snoops (count)
system.membus.snoopTraffic                          0                       # Total snoop traffic (bytes)
system.membus.snoop_fanout::samples               985                       # Request fanout histogram
system.membus.snoop_fanout::mean                    0                       # Request fanout histogram
system.membus.snoop_fanout::stdev                   0                       # Request fanout histogram
system.membus.snoop_fanout::underflows              0      0.00%      0.00% # Request fanout histogram
system.membus.snoop_fanout::0                     985    100.00%    100.00% # Request fanout histogram
system.membus.snoop_fanout::1                       0      0.00%    100.00% # Request fanout histogram
system.membus.snoop_fanout::overflows               0      0.00%    100.00% # Request fanout histogram
system.membus.snoop_fanout::min_value               0                       # Request fanout histogram
system.membus.snoop_fanout::max_value               0                       # Request fanout histogram
system.membus.snoop_fanout::total                 985                       # Request fanout histogram
system.membus.reqLayer2.occupancy             1213000                       # Layer occupancy (ticks)
system.membus.reqLayer2.utilization               0.0                       # Layer utilization (%)
system.membus.respLayer1.occupancy            5220000                       # Layer occupancy (ticks)
system.membus.respLayer1.utilization              0.0                       # Layer utilization (%)
system.tol2bus.snoop_filter.tot_requests         1333                       # Total number of requests made to the snoop filter.
system.tol2bus.snoop_filter.hit_single_requests          301                       # Number of requests hitting in the snoop filter with a single holder of the requested data.
system.tol2bus.snoop_filter.hit_multi_requests            0                       # Number of requests hitting in the snoop filter with multiple (>1) holders of the requested data.
system.tol2bus.snoop_filter.tot_snoops              0                       # Total number of snoops made to the snoop filter.
system.tol2bus.snoop_filter.hit_single_snoops            0                       # Number of snoops hitting in the snoop filter with a single holder of the requested data.
system.tol2bus.snoop_filter.hit_multi_snoops            0                       # Number of snoops hitting in the snoop filter with multiple (>1) holders of the requested data.
system.tol2bus.pwrStateResidencyTicks::UNDEFINED  14821383500                       # Cumulative time (in ticks) in various power states
system.tol2bus.trans_dist::ReadResp               883                       # Transaction distribution
system.tol2bus.trans_dist::WritebackClean          295                       # Transaction distribution
system.tol2bus.trans_dist::CleanEvict               1                       # Transaction distribution
system.tol2bus.trans_dist::ReadExReq              152                       # Transaction distribution
system.tol2bus.trans_dist::ReadExResp             152                       # Transaction distribution
system.tol2bus.trans_dist::ReadCleanReq           762                       # Transaction distribution
system.tol2bus.trans_dist::ReadSharedReq          123                       # Transaction distribution
system.tol2bus.pkt_count_system.cpu.icache.mem_side::system.l2.cpu_side         1817                       # Packet count per connected master and slave (bytes)
system.tol2bus.pkt_count_system.cpu.dcache.mem_side::system.l2.cpu_side          551                       # Packet count per connected master and slave (bytes)
system.tol2bus.pkt_count::total                  2368                       # Packet count per connected master and slave (bytes)
system.tol2bus.pkt_size_system.cpu.icache.mem_side::system.l2.cpu_side        67520                       # Cumulative packet size per connected master and slave (bytes)
system.tol2bus.pkt_size_system.cpu.dcache.mem_side::system.l2.cpu_side        17600                       # Cumulative packet size per connected master and slave (bytes)
system.tol2bus.pkt_size::total                  85120                       # Cumulative packet size per connected master and slave (bytes)
system.tol2bus.snoops                               0                       # Total snoops (count)
system.tol2bus.snoopTraffic                         0                       # Total snoop traffic (bytes)
system.tol2bus.snoop_fanout::samples             1037                       # Request fanout histogram
system.tol2bus.snoop_fanout::mean            0.004822                       # Request fanout histogram
system.tol2bus.snoop_fanout::stdev           0.069304                       # Request fanout histogram
system.tol2bus.snoop_fanout::underflows             0      0.00%      0.00% # Request fanout histogram
system.tol2bus.snoop_fanout::0                   1032     99.52%     99.52% # Request fanout histogram
system.tol2bus.snoop_fanout::1                      5      0.48%    100.00% # Request fanout histogram
system.tol2bus.snoop_fanout::2                      0      0.00%    100.00% # Request fanout histogram
system.tol2bus.snoop_fanout::3                      0      0.00%    100.00% # Request fanout histogram
system.tol2bus.snoop_fanout::4                      0      0.00%    100.00% # Request fanout histogram
system.tol2bus.snoop_fanout::overflows              0      0.00%    100.00% # Request fanout histogram
system.tol2bus.snoop_fanout::min_value              0                       # Request fanout histogram
system.tol2bus.snoop_fanout::max_value              1                       # Request fanout histogram
system.tol2bus.snoop_fanout::total               1037                       # Request fanout histogram
system.tol2bus.reqLayer0.occupancy             961500                       # Layer occupancy (ticks)
system.tol2bus.reqLayer0.utilization              0.0                       # Layer utilization (%)
system.tol2bus.respLayer0.occupancy           1140000                       # Layer occupancy (ticks)
system.tol2bus.respLayer0.utilization             0.0                       # Layer utilization (%)
system.tol2bus.respLayer1.occupancy            412999                       # Layer occupancy (ticks)
system.tol2bus.respLayer1.utilization             0.0                       # Layer utilization (%)

---------- End Simulation Statistics   ----------
